data/nesta/api/nesta_case1460wp_eir__api.m
%%%%%%%%%%%%%%%%%%%%%%%%%%%%%%%%%%%%%%%%%%%%%%%%%%%%%%%%%%%%%%%%%%%%%%%%%%%
%%%%                                                                  %%%%%
%%%%      NICTA Energy System Test Case Archive (NESTA) - v0.1.5      %%%%%
%%%%            Optimal Power Flow - Active Power Increase            %%%%%
%%%%                       30 - October - 2014                        %%%%%
%%%%                                                                  %%%%%
%%%%%%%%%%%%%%%%%%%%%%%%%%%%%%%%%%%%%%%%%%%%%%%%%%%%%%%%%%%%%%%%%%%%%%%%%%%
function mpc = nesta_case1460wp_eir__api
mpc.version = '2';
mpc.baseMVA = 100.0;

%% bus data
%	bus_i	type	Pd	Qd	Gs	Bs	area	Vm	Va	baseKV	zone	Vmax	Vmin
mpc.bus = [
	10	 1	 92.70	 11.64	 0.0	 0.0	 2	     1.0655	     0.0000	 38.0	 1	     1.1500	     0.8500;
	11	 1	 57.48	 8.64	 0.0	 0.0	 2	     1.0736	     0.0000	 38.0	 1	     1.1500	     0.8500;
	12	 1	 75.65	 18.82	 0.0	 0.0	 1	     1.0531	     0.0000	 38.0	 1	     1.1500	     0.8500;
	13	 1	 88.92	 22.11	 0.0	 0.0	 1	     1.0709	     0.0000	 38.0	 1	     1.1500	     0.8500;
	14	 1	 65.50	 16.29	 0.0	 0.0	 2	     1.0531	     0.0000	 38.0	 1	     1.1500	     0.8500;
	15	 1	 85.52	 21.26	 0.0	 0.0	 2	     1.0621	     0.0000	 38.0	 1	     1.1500	     0.8500;
	1021	 1	 0.00	 0.00	 0.0	 0.0	 4	     1.0500	     0.0000	 110.0	 1	     1.1500	     0.8500;
	1041	 1	 0.99	 0.43	 0.0	 0.0	 3	     1.0380	     0.0000	 110.0	 1	     1.1500	     0.8500;
	1042	 1	 0.00	 0.00	 0.0	 0.0	 3	     1.0400	     0.0000	 220.0	 1	     1.1500	     0.8500;
	1052	 1	 0.00	 0.00	 0.0	 0.0	 3	     1.0406	     0.0000	 220.0	 1	     1.1500	     0.8500;
	1061	 1	 0.00	 0.00	 0.0	 0.0	 9	     1.0468	     0.0000	 110.0	 1	     1.1500	     0.8500;
	1062	 1	 0.00	 0.00	 0.0	 0.0	 3	     1.0400	     0.0000	 220.0	 1	     1.1500	     0.8500;
	1071	 1	 0.00	 0.00	 0.0	 0.0	 4	     1.0627	     0.0000	 110.0	 1	     1.1500	     0.8500;
	1072	 1	 0.00	 0.00	 0.0	 0.0	 3	     1.0399	     0.0000	 220.0	 1	     1.1500	     0.8500;
	1081	 1	 0.00	 0.00	 0.0	 0.0	 7	     1.0498	     0.0000	 110.0	 1	     1.1500	     0.8500;
	1101	 1	 21.97	 4.98	 0.0	 0.0	 5	     1.0472	     0.0000	 110.0	 1	     1.1500	     0.8500;
	1121	 1	 0.00	 0.00	 0.0	 0.0	 6	     1.0646	     0.0000	 110.0	 1	     1.1500	     0.8500;
	1122	 1	 0.00	 0.00	 0.0	 0.0	 6	     1.0646	     0.0000	 220.0	 1	     1.1500	     0.8500;
	1131	 1	 0.00	 0.00	 0.0	 0.0	 7	     1.0536	     0.0000	 110.0	 1	     1.1500	     0.8500;
	1141	 1	 0.00	 0.00	 0.0	 0.0	 9	     1.0631	     0.0000	 110.0	 1	     1.1500	     0.8500;
	1151	 1	 0.00	 0.00	 0.0	 0.0	 7	     1.0536	     0.0000	 110.0	 1	     1.1500	     0.8500;
	1161	 1	 0.00	 0.00	 0.0	 0.0	 7	     1.0500	     0.0000	 110.0	 1	     1.1500	     0.8500;
	1181	 1	 0.00	 0.00	 0.0	 0.0	 10	     1.0419	     0.0000	 110.0	 1	     1.1500	     0.8500;
	1201	 1	 0.00	 0.00	 0.0	 0.0	 1	     1.0648	     0.0000	 110.0	 1	     1.1500	     0.8500;
	1221	 1	 0.00	 0.00	 0.0	 0.0	 8	     1.0475	     0.0000	 110.0	 1	     1.1500	     0.8500;
	1231	 1	 0.00	 0.00	 0.0	 0.0	 6	     1.0667	     0.0000	 110.0	 1	     1.1500	     0.8500;
	1251	 1	 0.00	 0.00	 0.0	 0.0	 4	     1.0406	     0.0000	 110.0	 1	     1.1500	     0.8500;
	1271	 1	 0.00	 0.00	 0.0	 0.0	 10	     1.0429	     0.0000	 110.0	 1	     1.1500	     0.8500;
	1281	 1	 0.00	 0.00	 0.0	 0.0	 3	     1.0313	     0.0000	 110.0	 1	     1.1500	     0.8500;
	1301	 1	 0.00	 0.00	 0.0	 0.0	 6	     1.0582	     0.0000	 110.0	 1	     1.1500	     0.8500;
	1321	 1	 0.00	 0.00	 0.0	 0.0	 8	     1.0434	     0.0000	 110.0	 1	     1.1500	     0.8500;
	1341	 1	 0.00	 0.00	 0.0	 0.0	 9	     1.0340	     0.0000	 110.0	 1	     1.1500	     0.8500;
	1351	 1	 0.00	 0.00	 0.0	 0.0	 8	     1.0466	     0.0000	 110.0	 1	     1.1500	     0.8500;
	1361	 1	 0.00	 0.00	 0.0	 0.0	 5	     1.0459	     0.0000	 110.0	 1	     1.1500	     0.8500;
	1381	 1	 0.00	 0.00	 0.0	 0.0	 3	     1.0355	     0.0000	 110.0	 1	     1.1500	     0.8500;
	1391	 1	 0.00	 0.00	 0.0	 0.0	 3	     1.0315	     0.0000	 110.0	 1	     1.1500	     0.8500;
	1401	 1	 0.00	 0.00	 0.0	 0.0	 9	     1.0516	     0.0000	 110.0	 1	     1.1500	     0.8500;
	1421	 1	 0.00	 0.00	 0.0	 0.0	 1	     1.0491	     0.0000	 110.0	 1	     1.1500	     0.8500;
	1441	 1	 0.00	 0.00	 0.0	 0.0	 3	     1.0246	     0.0000	 110.0	 1	     1.1500	     0.8500;
	1451	 1	 0.00	 0.00	 0.0	 0.0	 1	     1.0529	     0.0000	 110.0	 1	     1.1500	     0.8500;
	1461	 1	 0.00	 0.00	 0.0	 0.0	 5	     1.0357	     0.0000	 110.0	 1	     1.1500	     0.8500;
	1481	 1	 0.00	 0.00	 0.0	 0.0	 5	     1.0541	     0.0000	 110.0	 1	     1.1500	     0.8500;
	1501	 1	 0.00	 0.00	 0.0	 0.0	 3	     1.0244	     0.0000	 110.0	 1	     1.1500	     0.8500;
	1541	 1	 0.00	 0.00	 0.0	 0.0	 6	     1.0616	     0.0000	 110.0	 1	     1.1500	     0.8500;
	1551	 1	 0.00	 0.00	 0.0	 0.0	 3	     1.0500	     0.0000	 110.0	 1	     1.1500	     0.8500;
	1581	 1	 0.00	 0.00	 0.0	 0.0	 1	     1.0640	     0.0000	 110.0	 1	     1.1500	     0.8500;
	1601	 1	 0.00	 0.00	 0.0	 0.0	 3	     1.0430	     0.0000	 110.0	 1	     1.1500	     0.8500;
	1602	 1	 0.00	 0.00	 0.0	 0.0	 3	     1.0484	     0.0000	 220.0	 1	     1.1500	     0.8500;
	1611	 1	 0.00	 0.00	 0.0	 0.0	 7	     1.0496	     0.0000	 110.0	 1	     1.1500	     0.8500;
	1621	 1	 0.00	 0.00	 0.0	 0.0	 3	     1.0363	     0.0000	 110.0	 1	     1.1500	     0.8500;
	1631	 1	 0.00	 0.00	 0.0	 0.0	 9	     1.0504	     0.0000	 110.0	 1	     1.1500	     0.8500;
	1641	 1	 0.00	 0.00	 0.0	 0.0	 9	     1.0608	     0.0000	 110.0	 1	     1.1500	     0.8500;
	1642	 1	 0.00	 0.00	 0.0	 0.0	 9	     1.0602	     0.0000	 220.0	 1	     1.1500	     0.8500;
	1651	 1	 0.00	 0.00	 0.0	 0.0	 7	     1.0614	     0.0000	 110.0	 1	     1.1500	     0.8500;
	1661	 1	 0.00	 0.00	 0.0	 0.0	 9	     1.0500	     0.0000	 110.0	 1	     1.1500	     0.8500;
	1681	 1	 0.00	 0.00	 0.0	 0.0	 3	     1.0391	     0.0000	 110.0	 1	     1.1500	     0.8500;
	1691	 1	 0.00	 0.00	 0.0	 0.0	 1	     1.0522	     0.0000	 110.0	 1	     1.1500	     0.8500;
	1701	 1	 0.00	 0.00	 0.0	 0.0	 9	     1.0500	     0.0000	 110.0	 1	     1.1500	     0.8500;
	1711	 1	 0.00	 0.00	 0.0	 0.0	 1	     1.0595	     0.0000	 110.0	 1	     1.1500	     0.8500;
	1721	 1	 0.00	 0.00	 0.0	 0.0	 5	     1.0531	     0.0000	 110.0	 1	     1.1500	     0.8500;
	1731	 1	 0.00	 0.00	 0.0	 0.0	 1	     1.0595	     0.0000	 110.0	 1	     1.1500	     0.8500;
	1741	 1	 0.00	 0.00	 0.0	 0.0	 2	     1.0523	     0.0000	 110.0	 1	     1.1500	     0.8500;
	1742	 1	 0.00	 0.00	 0.0	 0.0	 2	     1.0639	     0.0000	 220.0	 1	     1.1500	     0.8500;
	1761	 1	 0.00	 0.00	 0.0	 0.0	 9	     1.0521	     0.0000	 110.0	 1	     1.1500	     0.8500;
	1781	 1	 0.00	 0.00	 0.0	 0.0	 7	     1.0496	     0.0000	 110.0	 1	     1.1500	     0.8500;
	1801	 1	 0.00	 0.00	 0.0	 0.0	 1	     1.0524	     0.0000	 110.0	 1	     1.1500	     0.8500;
	1821	 1	 0.00	 0.00	 0.0	 0.0	 9	     1.0533	     0.0000	 110.0	 1	     1.1500	     0.8500;
	1841	 1	 0.00	 0.00	 0.0	 0.0	 6	     1.0654	     0.0000	 110.0	 1	     1.1500	     0.8500;
	1861	 1	 0.00	 0.00	 0.0	 0.0	 9	     1.0460	     0.0000	 110.0	 1	     1.1500	     0.8500;
	1871	 1	 0.00	 0.00	 0.0	 0.0	 2	     1.0552	     0.0000	 110.0	 1	     1.1500	     0.8500;
	1881	 1	 0.00	 0.00	 0.0	 0.0	 3	     1.0343	     0.0000	 110.0	 1	     1.1500	     0.8500;
	1901	 1	 0.00	 0.00	 0.0	 0.0	 6	     1.0561	     0.0000	 110.0	 1	     1.1500	     0.8500;
	1911	 1	 0.00	 0.00	 0.0	 0.0	 9	     1.0631	     0.0000	 110.0	 1	     1.1500	     0.8500;
	1921	 1	 0.00	 0.00	 0.0	 0.0	 3	     1.0344	     0.0000	 110.0	 1	     1.1500	     0.8500;
	1931	 1	 0.00	 0.00	 0.0	 0.0	 9	     1.0512	     0.0000	 110.0	 1	     1.1500	     0.8500;
	1941	 1	 0.00	 0.00	 0.0	 0.0	 8	     1.0750	     0.0000	 110.0	 1	     1.1500	     0.8500;
	1951	 1	 0.00	 0.00	 0.0	 0.0	 9	     1.0393	     0.0000	 110.0	 1	     1.1500	     0.8500;
	1961	 1	 0.00	 0.00	 0.0	 0.0	 3	     1.0338	     0.0000	 110.0	 1	     1.1500	     0.8500;
	1971	 1	 0.00	 0.00	 0.0	 0.0	 7	     1.0500	     0.0000	 110.0	 1	     1.1500	     0.8500;
	1981	 1	 0.00	 0.00	 0.0	 0.0	 9	     1.0452	     0.0000	 110.0	 1	     1.1500	     0.8500;
	1991	 1	 0.00	 0.00	 0.0	 0.0	 6	     1.0669	     0.0000	 110.0	 1	     1.1500	     0.8500;
	2001	 1	 0.00	 0.00	 0.0	 0.0	 5	     1.0567	     0.0000	 110.0	 1	     1.1500	     0.8500;
	2002	 1	 0.00	 0.00	 0.0	 0.0	 5	     1.0648	     0.0000	 220.0	 1	     1.1500	     0.8500;
	2021	 1	 0.00	 0.00	 0.0	 0.0	 1	     1.0295	     0.0000	 110.0	 1	     1.1500	     0.8500;
	2041	 1	 0.00	 0.00	 0.0	 0.0	 2	     1.0557	     0.0000	 110.0	 1	     1.1500	     0.8500;
	2042	 1	 0.00	 0.00	 0.0	 0.0	 2	     1.0750	     0.0000	 220.0	 1	     1.1500	     0.8500;
	2052	 1	 0.00	 0.00	 0.0	 0.0	 2	     1.0750	     0.0000	 220.0	 1	     1.1500	     0.8500;
	2081	 4	 0.0	 0.0	 0.0	 0.0	 3	     1.0000	     0.0000	 110.0	 1	     1.1500	     0.8500;
	2101	 1	 0.00	 0.00	 0.0	 0.0	 10	     1.0363	     0.0000	 110.0	 1	     1.1500	     0.8500;
	2121	 1	 0.00	 0.00	 0.0	 0.0	 4	     1.0446	     0.0000	 110.0	 1	     1.1500	     0.8500;
	2131	 1	 0.00	 0.00	 0.0	 0.0	 3	     1.0529	     0.0000	 110.0	 1	     1.1500	     0.8500;
	2141	 1	 0.00	 0.00	 0.0	 0.0	 5	     1.0362	     0.0000	 110.0	 1	     1.1500	     0.8500;
	2161	 1	 0.00	 0.00	 0.0	 0.0	 5	     1.0480	     0.0000	 110.0	 1	     1.1500	     0.8500;
	2181	 1	 0.00	 0.00	 0.0	 0.0	 10	     1.0316	     0.0000	 110.0	 1	     1.1500	     0.8500;
	2202	 1	 0.00	 0.00	 0.0	 0.0	 2	     1.0629	     0.0000	 220.0	 1	     1.1500	     0.8500;
	2204	 1	 0.00	 0.00	 0.0	 0.0	 2	     1.0296	     0.0000	 380.0	 1	     1.1500	     0.8500;
	2221	 1	 0.00	 0.00	 0.0	 0.0	 3	     1.0288	     0.0000	 110.0	 1	     1.1500	     0.8500;
	2231	 1	 0.00	 0.00	 0.0	 0.0	 4	     1.0646	     0.0000	 110.0	 1	     1.1500	     0.8500;
	2241	 1	 0.00	 0.00	 0.0	 0.0	 5	     1.0631	     0.0000	 110.0	 1	     1.1500	     0.8500;
	2251	 1	 0.00	 0.00	 0.0	 0.0	 1	     1.0602	     0.0000	 110.0	 1	     1.1500	     0.8500;
	2261	 1	 0.00	 0.00	 0.0	 0.0	 8	     1.0428	     0.0000	 110.0	 1	     1.1500	     0.8500;
	2281	 1	 0.00	 0.00	 0.0	 0.0	 9	     1.0425	     0.0000	 110.0	 1	     1.1500	     0.8500;
	2301	 1	 0.00	 0.00	 0.0	 0.0	 8	     1.0446	     0.0000	 110.0	 1	     1.1500	     0.8500;
	2321	 1	 0.00	 0.00	 0.0	 0.0	 9	     1.0324	     0.0000	 110.0	 1	     1.1500	     0.8500;
	2361	 1	 0.00	 0.00	 0.0	 0.0	 4	     1.0416	     0.0000	 110.0	 1	     1.1500	     0.8500;
	2401	 1	 0.00	 0.00	 0.0	 0.0	 8	     1.0552	     0.0000	 110.0	 1	     1.1500	     0.8500;
	2481	 1	 0.00	 0.00	 0.0	 0.0	 2	     1.0461	     0.0000	 110.0	 1	     1.1500	     0.8500;
	2491	 1	 0.00	 0.00	 0.0	 0.0	 2	     1.0459	     0.0000	 110.0	 1	     1.1500	     0.8500;
	2521	 1	 0.00	 0.00	 0.0	 0.0	 9	     1.0472	     0.0000	 110.0	 1	     1.1500	     0.8500;
	2522	 1	 0.00	 0.00	 0.0	 0.0	 9	     1.0494	     0.0000	 220.0	 1	     1.1500	     0.8500;
	2541	 1	 0.00	 0.00	 0.0	 0.0	 1	     1.0585	     0.0000	 110.0	 1	     1.1500	     0.8500;
	2551	 1	 0.00	 0.00	 0.0	 0.0	 1	     1.0564	     0.0000	 110.0	 1	     1.1500	     0.8500;
	2561	 1	 0.00	 0.00	 0.0	 0.0	 2	     1.0664	     0.0000	 110.0	 1	     1.1500	     0.8500;
	2562	 1	 0.00	 0.00	 0.0	 0.0	 2	     1.0750	     0.0000	 220.0	 1	     1.1500	     0.8500;
	2563	 1	 0.00	 0.00	 0.0	 0.0	 2	     1.0750	     0.0000	 220.0	 1	     1.1500	     0.8500;
	2571	 1	 0.00	 0.00	 0.0	 0.0	 2	     1.0611	     0.0000	 110.0	 1	     1.1500	     0.8500;
	2581	 1	 0.00	 0.00	 0.0	 0.0	 2	     1.0544	     0.0000	 110.0	 1	     1.1500	     0.8500;
	2671	 1	 0.00	 0.00	 0.0	 0.0	 9	     1.0504	     0.0000	 110.0	 1	     1.1500	     0.8500;
	2681	 1	 0.00	 0.00	 0.0	 0.0	 9	     1.0492	     0.0000	 110.0	 1	     1.1500	     0.8500;
	2701	 1	 0.00	 0.00	 0.0	 0.0	 1	     1.0389	     0.0000	 110.0	 1	     1.1500	     0.8500;
	2721	 1	 0.00	 0.00	 0.0	 0.0	 2	     1.0464	     0.0000	 110.0	 1	     1.1500	     0.8500;
	2731	 1	 0.00	 0.00	 0.0	 0.0	 7	     1.0500	     0.0000	 110.0	 1	     1.1500	     0.8500;
	2741	 1	 0.00	 0.00	 0.0	 0.0	 6	     1.0627	     0.0000	 110.0	 1	     1.1500	     0.8500;
	2742	 1	 0.00	 0.00	 0.0	 0.0	 6	     1.0750	     0.0000	 220.0	 1	     1.1500	     0.8500;
	2761	 1	 0.00	 0.00	 0.0	 0.0	 1	     1.0589	     0.0000	 110.0	 1	     1.1500	     0.8500;
	2771	 1	 0.00	 0.00	 0.0	 0.0	 7	     1.0512	     0.0000	 110.0	 1	     1.1500	     0.8500;
	2780	 1	 0.00	 0.00	 0.0	 0.0	 9	     1.0497	     0.0000	 110.0	 1	     1.1500	     0.8500;
	2781	 1	 0.00	 0.00	 0.0	 0.0	 9	     1.0497	     0.0000	 110.0	 1	     1.1500	     0.8500;
	2801	 1	 0.00	 0.00	 0.0	 0.0	 9	     1.0384	     0.0000	 110.0	 1	     1.1500	     0.8500;
	2821	 1	 0.00	 0.00	 0.0	 0.0	 9	     1.0437	     0.0000	 110.0	 1	     1.1500	     0.8500;
	2841	 1	 0.00	 0.00	 0.0	 0.0	 10	     1.0283	     0.0000	 110.0	 1	     1.1500	     0.8500;
	2842	 1	 0.00	 0.00	 0.0	 0.0	 10	     1.0423	     0.0000	 220.0	 1	     1.1500	     0.8500;
	2852	 1	 0.00	 0.00	 0.0	 0.0	 3	     1.0405	     0.0000	 220.0	 1	     1.1500	     0.8500;
	2861	 1	 0.00	 0.00	 0.0	 0.0	 1	     1.0317	     0.0000	 110.0	 1	     1.1500	     0.8500;
	2881	 1	 0.00	 0.00	 0.0	 0.0	 3	     1.0476	     0.0000	 110.0	 1	     1.1500	     0.8500;
	2941	 1	 0.00	 0.00	 0.0	 0.0	 1	     1.0588	     0.0000	 110.0	 1	     1.1500	     0.8500;
	2951	 1	 0.00	 0.00	 0.0	 0.0	 1	     1.0566	     0.0000	 110.0	 1	     1.1500	     0.8500;
	2962	 1	 0.00	 0.00	 0.0	 0.0	 2	     1.0755	     0.0000	 220.0	 1	     1.1500	     0.8500;
	2972	 1	 0.00	 0.00	 0.0	 0.0	 2	     1.0768	     0.0000	 220.0	 1	     1.1500	     0.8500;
	3061	 1	 0.00	 0.00	 0.0	 0.0	 3	     1.0380	     0.0000	 110.0	 1	     1.1500	     0.8500;
	3081	 1	 0.00	 0.00	 0.0	 0.0	 2	     1.0571	     0.0000	 110.0	 1	     1.1500	     0.8500;
	3082	 1	 0.00	 0.00	 0.0	 0.0	 2	     1.0670	     0.0000	 220.0	 1	     1.1500	     0.8500;
	3091	 1	 0.00	 0.00	 0.0	 0.0	 2	     1.0364	     0.0000	 110.0	 1	     1.1500	     0.8500;
	3101	 1	 0.00	 0.00	 0.0	 0.0	 5	     1.0550	     0.0000	 110.0	 1	     1.1500	     0.8500;
	3122	 1	 0.00	 0.00	 0.0	 0.0	 2	     1.0706	     0.0000	 220.0	 1	     1.1500	     0.8500;
	3200	 1	 0.00	 0.00	 0.0	 0.0	 3	     1.0374	     0.0000	 110.0	 1	     1.1500	     0.8500;
	3201	 1	 0.00	 0.00	 0.0	 0.0	 3	     1.0374	     0.0000	 110.0	 1	     1.1500	     0.8500;
	3202	 1	 0.00	 0.00	 0.0	 0.0	 3	     1.0410	     0.0000	 220.0	 1	     1.1500	     0.8500;
	3203	 1	 0.00	 0.00	 0.0	 0.0	 3	     1.0440	     0.0000	 220.0	 1	     1.1500	     0.8500;
	3209	 1	 0.00	 0.00	 0.0	 0.0	 3	     1.0374	     0.0000	 110.0	 1	     1.1500	     0.8500;
	3221	 1	 0.00	 0.00	 0.0	 0.0	 3	     1.0284	     0.0000	 110.0	 1	     1.1500	     0.8500;
	3241	 1	 0.00	 0.00	 0.0	 0.0	 8	     1.0497	     0.0000	 110.0	 1	     1.1500	     0.8500;
	3251	 1	 0.00	 0.00	 0.0	 0.0	 7	     1.0582	     0.0000	 110.0	 1	     1.1500	     0.8500;
	3261	 1	 0.00	 0.00	 0.0	 0.0	 6	     1.0494	     0.0000	 110.0	 1	     1.1500	     0.8500;
	3281	 1	 0.00	 0.00	 0.0	 0.0	 7	     1.0501	     0.0000	 110.0	 1	     1.1500	     0.8500;
	3282	 1	 0.00	 0.00	 0.0	 0.0	 7	     1.0454	     0.0000	 220.0	 1	     1.1500	     0.8500;
	3301	 1	 0.00	 0.00	 0.0	 0.0	 7	     1.0453	     0.0000	 110.0	 1	     1.1500	     0.8500;
	3321	 1	 0.00	 0.00	 0.0	 0.0	 10	     1.0190	     0.0000	 110.0	 1	     1.1500	     0.8500;
	3341	 1	 0.00	 0.00	 0.0	 0.0	 6	     1.0620	     0.0000	 110.0	 1	     1.1500	     0.8500;
	3342	 1	 0.00	 0.00	 0.0	 0.0	 6	     1.0552	     0.0000	 220.0	 1	     1.1500	     0.8500;
	3361	 1	 0.00	 0.00	 0.0	 0.0	 9	     1.0269	     0.0000	 110.0	 1	     1.1500	     0.8500;
	3381	 1	 0.00	 0.00	 0.0	 0.0	 8	     1.0415	     0.0000	 110.0	 1	     1.1500	     0.8500;
	3391	 1	 0.00	 0.00	 0.0	 0.0	 3	     1.0500	     0.0000	 110.0	 1	     1.1500	     0.8500;
	3401	 1	 0.00	 0.00	 0.0	 0.0	 5	     1.0552	     0.0000	 110.0	 1	     1.1500	     0.8500;
	3421	 1	 0.00	 0.00	 0.0	 0.0	 1	     1.0594	     0.0000	 110.0	 1	     1.1500	     0.8500;
	3431	 1	 0.00	 0.00	 0.0	 0.0	 1	     1.0314	     0.0000	 110.0	 1	     1.1500	     0.8500;
	3501	 1	 0.00	 0.00	 0.0	 0.0	 9	     1.0500	     0.0000	 110.0	 1	     1.1500	     0.8500;
	3521	 1	 0.00	 0.00	 0.0	 0.0	 10	     1.0613	     0.0000	 110.0	 1	     1.1500	     0.8500;
	3522	 1	 0.00	 0.00	 0.0	 0.0	 10	     1.0384	     0.0000	 220.0	 1	     1.1500	     0.8500;
	3541	 1	 0.00	 0.00	 0.0	 0.0	 7	     1.0444	     0.0000	 110.0	 1	     1.1500	     0.8500;
	3561	 1	 0.00	 0.00	 0.0	 0.0	 10	     1.0545	     0.0000	 110.0	 1	     1.1500	     0.8500;
	3581	 1	 0.00	 0.00	 0.0	 0.0	 9	     1.0268	     0.0000	 110.0	 1	     1.1500	     0.8500;
	3601	 1	 0.00	 0.00	 0.0	 0.0	 3	     1.0268	     0.0000	 110.0	 1	     1.1500	     0.8500;
	3611	 1	 0.00	 0.00	 0.0	 0.0	 3	     1.0271	     0.0000	 110.0	 1	     1.1500	     0.8500;
	3621	 1	 0.00	 0.00	 0.0	 0.0	 5	     1.0500	     0.0000	 110.0	 1	     1.1500	     0.8500;
	3641	 1	 0.00	 0.00	 0.0	 0.0	 6	     1.0673	     0.0000	 110.0	 1	     1.1500	     0.8500;
	3642	 1	 0.00	 0.00	 0.0	 0.0	 6	     1.0690	     0.0000	 220.0	 1	     1.1500	     0.8500;
	3651	 1	 0.00	 0.00	 0.0	 0.0	 5	     1.0673	     0.0000	 110.0	 1	     1.1500	     0.8500;
	3751	 1	 0.00	 0.00	 0.0	 0.0	 1	     1.0593	     0.0000	 110.0	 1	     1.1500	     0.8500;
	3761	 1	 0.00	 0.00	 0.0	 0.0	 1	     1.0535	     0.0000	 110.0	 1	     1.1500	     0.8500;
	3781	 1	 0.00	 0.00	 0.0	 0.0	 1	     1.0642	     0.0000	 110.0	 1	     1.1500	     0.8500;
	3801	 1	 0.00	 0.00	 0.0	 0.0	 3	     1.0318	     0.0000	 110.0	 1	     1.1500	     0.8500;
	3821	 1	 0.00	 0.00	 0.0	 0.0	 10	     1.0270	     0.0000	 110.0	 1	     1.1500	     0.8500;
	3841	 1	 0.00	 0.00	 0.0	 0.0	 2	     1.0489	     0.0000	 110.0	 1	     1.1500	     0.8500;
	3842	 1	 0.00	 0.00	 0.0	 0.0	 2	     1.0589	     0.0000	 220.0	 1	     1.1500	     0.8500;
	3851	 1	 0.00	 0.00	 0.0	 0.0	 2	     1.0531	     0.0000	 110.0	 1	     1.1500	     0.8500;
	3852	 1	 0.00	 0.00	 0.0	 0.0	 2	     1.0657	     0.0000	 220.0	 1	     1.1500	     0.8500;
	3861	 1	 0.00	 0.00	 0.0	 0.0	 1	     1.0595	     0.0000	 110.0	 1	     1.1500	     0.8500;
	3871	 1	 0.00	 0.00	 0.0	 0.0	 1	     1.0531	     0.0000	 110.0	 1	     1.1500	     0.8500;
	3881	 1	 0.00	 0.00	 0.0	 0.0	 3	     1.0395	     0.0000	 110.0	 1	     1.1500	     0.8500;
	3901	 1	 0.00	 0.00	 0.0	 0.0	 7	     1.0429	     0.0000	 110.0	 1	     1.1500	     0.8500;
	3934	 1	 0.00	 0.00	 0.0	 0.0	 4	     1.0500	     0.0000	 380.0	 1	     1.1500	     0.8500;
	3941	 1	 0.00	 0.00	 0.0	 0.0	 4	     1.0343	     0.0000	 110.0	 1	     1.1500	     0.8500;
	3942	 1	 0.00	 0.00	 0.0	 0.0	 4	     1.0686	     0.0000	 220.0	 1	     1.1500	     0.8500;
	3944	 1	 0.00	 0.00	 0.0	 0.0	 4	     1.0500	     0.0000	 380.0	 1	     1.1500	     0.8500;
	3954	 1	 0.00	 0.00	 0.0	 0.0	 4	     1.0500	     0.0000	 380.0	 1	     1.1500	     0.8500;
	3961	 1	 0.00	 0.00	 0.0	 0.0	 3	     1.0272	     0.0000	 110.0	 1	     1.1500	     0.8500;
	3981	 1	 0.00	 0.00	 0.0	 0.0	 7	     1.0427	     0.0000	 110.0	 1	     1.1500	     0.8500;
	3991	 1	 0.00	 0.00	 0.0	 0.0	 7	     1.0427	     0.0000	 110.0	 1	     1.1500	     0.8500;
	4001	 1	 0.00	 0.00	 0.0	 0.0	 9	     1.0506	     0.0000	 110.0	 1	     1.1500	     0.8500;
...
];

%% generator data
%	bus	Pg	Qg	Qmax	Qmin	Vg	mBase	status	Pmax	Pmin	Pc1	Pc2	Qc1min	Qc1max	Qc2min	Qc2max	ramp_agc	ramp_10	ramp_30	ramp_q	apf
mpc.gen = [
	10271	 45.0	 18.0	 48.0	 -48.0	 1.05	 34.0	 1	 96	 2.5	 0.0	 0.0	 0.0	 0.0	 0.0	 0.0	 0.0	 0.0	 0.0	 0.0	 0.0; % PEL
	10272	 40.0	 16.0	 32.0	 -32.0	 1.05	 34.0	 1	 64	 2.5	 0.0	 0.0	 0.0	 0.0	 0.0	 0.0	 0.0	 0.0	 0.0	 0.0	 0.0; % NG
	10273	 19.0	 -2.507	 46.0	 -46.0	 1.05	 34.0	 0	 92	 2.5	 0.0	 0.0	 0.0	 0.0	 0.0	 0.0	 0.0	 0.0	 0.0	 0.0	 0.0; % NG
	10274	 46.0	 18.0	 51.0	 -51.0	 1.05	 34.0	 1	 101	 2.5	 0.0	 0.0	 0.0	 0.0	 0.0	 0.0	 0.0	 0.0	 0.0	 0.0	 0.0; % PEL
	10275	 5.0	 2.0	 3.0	 -3.0	 1.05	 8.35	 1	 5	 0.0	 0.0	 0.0	 0.0	 0.0	 0.0	 0.0	 0.0	 0.0	 0.0	 0.0	 0.0; % PEL
	10276	 2.0	 1.0	 4.0	 -4.0	 1.05	 0.85	 1	 8	 0.0	 0.0	 0.0	 0.0	 0.0	 0.0	 0.0	 0.0	 0.0	 0.0	 0.0	 0.0; % PEL
	10470	 292.0	 26.0	 270.0	 -207.0	 1.04	 500.0	 1	 414	 111.0	 0.0	 0.0	 0.0	 0.0	 0.0	 0.0	 0.0	 0.0	 0.0	 0.0	 0.0; % COW
	10471	 270.0	 0.0	 187.0	 -187.0	 1.075	 318.8	 0	 373	 20.0	 0.0	 0.0	 0.0	 0.0	 0.0	 0.0	 0.0	 0.0	 0.0	 0.0	 0.0; % COW
	10472	 90.0	 0.0	 143.0	 -143.0	 1.075	 100.9	 0	 286	 6.5	 0.0	 0.0	 0.0	 0.0	 0.0	 0.0	 0.0	 0.0	 0.0	 0.0	 0.0; % NG
	10473	 90.0	 0.0	 61.0	 -61.0	 1.075	 100.9	 0	 121	 6.5	 0.0	 0.0	 0.0	 0.0	 0.0	 0.0	 0.0	 0.0	 0.0	 0.0	 0.0; % NG
	10474	 90.0	 0.0	 71.0	 -71.0	 1.075	 100.9	 0	 142	 6.5	 0.0	 0.0	 0.0	 0.0	 0.0	 0.0	 0.0	 0.0	 0.0	 0.0	 0.0; % NG
	10671	 10.0	 -1.0	 19.0	 -19.0	 1.04	 4.8	 1	 38	 0.0	 0.0	 0.0	 0.0	 0.0	 0.0	 0.0	 0.0	 0.0	 0.0	 0.0	 0.0; % PEL
	10672	 11.0	 -2.0	 24.0	 -24.0	 1.04	 6.0	 1	 48	 0.0	 0.0	 0.0	 0.0	 0.0	 0.0	 0.0	 0.0	 0.0	 0.0	 0.0	 0.0; % NG
	10673	 4.0	 -1.0	 3.0	 -3.0	 1.05	 1.2	 1	 5	 0.0	 0.0	 0.0	 0.0	 0.0	 0.0	 0.0	 0.0	 0.0	 0.0	 0.0	 0.0; % PEL
	10674	 3.0	 -1.0	 3.0	 -3.0	 1.04	 4.6	 1	 6	 0.0	 0.0	 0.0	 0.0	 0.0	 0.0	 0.0	 0.0	 0.0	 0.0	 0.0	 0.0; % NG
	11204	 1.0	 0.0	 2.0	 -2.0	 1.0	 1.6	 0	 4	 0.0	 0.0	 0.0	 0.0	 0.0	 0.0	 0.0	 0.0	 0.0	 0.0	 0.0	 0.0; % PEL
	11271	 14.0	 -7.0	 11.0	 -11.0	 1.04	 28.0	 1	 22	 0.0	 0.0	 0.0	 0.0	 0.0	 0.0	 0.0	 0.0	 0.0	 0.0	 0.0	 0.0; % NG
	11371	 28.0	 -13.0	 44.0	 -44.0	 1.05	 66.0	 1	 87	 0.0	 0.0	 0.0	 0.0	 0.0	 0.0	 0.0	 0.0	 0.0	 0.0	 0.0	 0.0; % NG
	12371	 16.0	 -13.0	 29.0	 -29.0	 1.05	 32.0	 1	 58	 0.0	 0.0	 0.0	 0.0	 0.0	 0.0	 0.0	 0.0	 0.0	 0.0	 0.0	 0.0; % NG
	12372	 13.0	 -4.0	 13.0	 -13.0	 1.05	 10.0	 1	 26	 0.0	 0.0	 0.0	 0.0	 0.0	 0.0	 0.0	 0.0	 0.0	 0.0	 0.0	 0.0; % NG
	12571	 8.0	 3.0	 5.0	 -5.0	 1.05	 25.05	 1	 9	 0.0	 0.0	 0.0	 0.0	 0.0	 0.0	 0.0	 0.0	 0.0	 0.0	 0.0	 0.0; % NG
	12572	 6.0	 -1.0	 13.0	 -13.0	 1.05	 3.34	 1	 26	 0.0	 0.0	 0.0	 0.0	 0.0	 0.0	 0.0	 0.0	 0.0	 0.0	 0.0	 0.0; % PEL
	12573	 7.0	 -1.0	 8.0	 -8.0	 1.05	 10.02	 1	 16	 0.0	 0.0	 0.0	 0.0	 0.0	 0.0	 0.0	 0.0	 0.0	 0.0	 0.0	 0.0; % NG
	12872	 4.0	 1.0	 8.0	 -8.0	 1.05	 9.2	 1	 15	 0.0	 0.0	 0.0	 0.0	 0.0	 0.0	 0.0	 0.0	 0.0	 0.0	 0.0	 0.0; % COW
	12873	 8.0	 1.0	 7.0	 -7.0	 1.05	 20.7	 1	 14	 0.0	 0.0	 0.0	 0.0	 0.0	 0.0	 0.0	 0.0	 0.0	 0.0	 0.0	 0.0; % PEL
	12874	 4.0	 1.0	 8.0	 -8.0	 1.05	 8.5	 1	 16	 0.0	 0.0	 0.0	 0.0	 0.0	 0.0	 0.0	 0.0	 0.0	 0.0	 0.0	 0.0; % NG
	13434	 14.0	 -4.0	 32.0	 -32.0	 1.0	 4.5	 1	 64	 0.0	 0.0	 0.0	 0.0	 0.0	 0.0	 0.0	 0.0	 0.0	 0.0	 0.0	 0.0; % NG
	13471	 2.0	 1.0	 5.0	 -5.0	 1.05	 0.66	 1	 9	 0.0	 0.0	 0.0	 0.0	 0.0	 0.0	 0.0	 0.0	 0.0	 0.0	 0.0	 0.0; % PEL
	13472	 6.0	 1.0	 8.0	 -8.0	 1.05	 2.7	 1	 15	 0.0	 0.0	 0.0	 0.0	 0.0	 0.0	 0.0	 0.0	 0.0	 0.0	 0.0	 0.0; % PEL
	13473	 6.0	 2.0	 8.0	 -8.0	 1.05	 10.0	 1	 15	 0.0	 0.0	 0.0	 0.0	 0.0	 0.0	 0.0	 0.0	 0.0	 0.0	 0.0	 0.0; % PEL
	13474	 4.0	 2.0	 4.0	 -4.0	 1.05	 6.25	 1	 7	 0.0	 0.0	 0.0	 0.0	 0.0	 0.0	 0.0	 0.0	 0.0	 0.0	 0.0	 0.0; % NG
	13475	 4.0	 2.0	 5.0	 -5.0	 1.05	 7.65	 1	 9	 0.0	 0.0	 0.0	 0.0	 0.0	 0.0	 0.0	 0.0	 0.0	 0.0	 0.0	 0.0; % NG
	13476	 6.0	 1.0	 10.0	 -10.0	 1.05	 11.5	 1	 19	 0.0	 0.0	 0.0	 0.0	 0.0	 0.0	 0.0	 0.0	 0.0	 0.0	 0.0	 0.0; % NG
	13477	 3.0	 1.0	 7.0	 -7.0	 1.05	 2.7	 1	 13	 0.0	 0.0	 0.0	 0.0	 0.0	 0.0	 0.0	 0.0	 0.0	 0.0	 0.0	 0.0; % PEL
	13479	 3.0	 1.0	 7.0	 -7.0	 1.0	 3.4	 1	 14	 0.0	 0.0	 0.0	 0.0	 0.0	 0.0	 0.0	 0.0	 0.0	 0.0	 0.0	 0.0; % PEL
	14073	 12.0	 -4.0	 15.0	 -15.0	 1.04	 7.611	 1	 30	 0.0	 0.0	 0.0	 0.0	 0.0	 0.0	 0.0	 0.0	 0.0	 0.0	 0.0	 0.0; % NG
	14471	 2.0	 1.0	 5.0	 -5.0	 1.04	 4.0	 1	 9	 0.0	 0.0	 0.0	 0.0	 0.0	 0.0	 0.0	 0.0	 0.0	 0.0	 0.0	 0.0; % NG
	14472	 2.0	 1.0	 3.0	 -3.0	 1.0	 0.85	 1	 6	 0.0	 0.0	 0.0	 0.0	 0.0	 0.0	 0.0	 0.0	 0.0	 0.0	 0.0	 0.0; % NG
	14604	 4.8	 0.0	 4.0	 -4.0	 1.05	 7.0	 0	 7	 0.0	 0.0	 0.0	 0.0	 0.0	 0.0	 0.0	 0.0	 0.0	 0.0	 0.0	 0.0; % PEL
	14871	 3.0	 1.0	 3.0	 -3.0	 1.05	 4.6	 1	 6	 0.0	 0.0	 0.0	 0.0	 0.0	 0.0	 0.0	 0.0	 0.0	 0.0	 0.0	 0.0; % PEL
	15571	 4.0	 -1.0	 5.0	 -5.0	 1.0	 5.95	 1	 10	 0.0	 0.0	 0.0	 0.0	 0.0	 0.0	 0.0	 0.0	 0.0	 0.0	 0.0	 0.0; % NG
	15572	 8.0	 -2.0	 19.0	 -19.0	 1.0	 18.75	 1	 37	 0.0	 0.0	 0.0	 0.0	 0.0	 0.0	 0.0	 0.0	 0.0	 0.0	 0.0	 0.0; % NG
	15573	 10.0	 -1.0	 12.0	 -12.0	 1.04	 23.0	 1	 23	 0.0	 0.0	 0.0	 0.0	 0.0	 0.0	 0.0	 0.0	 0.0	 0.0	 0.0	 0.0; % PEL
	15771	 5.0	 -1.0	 9.0	 -9.0	 1.04	 1.98	 1	 18	 0.0	 0.0	 0.0	 0.0	 0.0	 0.0	 0.0	 0.0	 0.0	 0.0	 0.0	 0.0; % PEL
	15772	 7.0	 -1.0	 13.0	 -13.0	 1.04	 3.0	 1	 25	 0.0	 0.0	 0.0	 0.0	 0.0	 0.0	 0.0	 0.0	 0.0	 0.0	 0.0	 0.0; % PEL
	16371	 5.0	 -1.0	 12.0	 -12.0	 1.0	 3.4	 1	 23	 0.0	 0.0	 0.0	 0.0	 0.0	 0.0	 0.0	 0.0	 0.0	 0.0	 0.0	 0.0; % NG
	16372	 5.0	 -1.0	 6.0	 -6.0	 1.0	 3.4	 1	 11	 0.0	 0.0	 0.0	 0.0	 0.0	 0.0	 0.0	 0.0	 0.0	 0.0	 0.0	 0.0; % NG
	16373	 6.0	 -1.0	 6.0	 -6.0	 1.0	 6.8	 1	 11	 0.0	 0.0	 0.0	 0.0	 0.0	 0.0	 0.0	 0.0	 0.0	 0.0	 0.0	 0.0; % NG
	16374	 5.0	 1.0	 7.0	 -7.0	 1.0	 7.65	 1	 14	 0.0	 0.0	 0.0	 0.0	 0.0	 0.0	 0.0	 0.0	 0.0	 0.0	 0.0	 0.0; % COW
	16375	 4.0	 1.0	 4.0	 -4.0	 1.0	 4.25	 1	 7	 0.0	 0.0	 0.0	 0.0	 0.0	 0.0	 0.0	 0.0	 0.0	 0.0	 0.0	 0.0; % NG
	16376	 6.0	 -1.0	 9.0	 -9.0	 1.0	 5.1	 1	 18	 0.0	 0.0	 0.0	 0.0	 0.0	 0.0	 0.0	 0.0	 0.0	 0.0	 0.0	 0.0; % NG
	16377	 5.0	 -1.0	 7.0	 -7.0	 1.0	 9.2	 1	 13	 0.0	 0.0	 0.0	 0.0	 0.0	 0.0	 0.0	 0.0	 0.0	 0.0	 0.0	 0.0; % COW
	16379	 1.0	 -1.0	 1.2	 -1.2	 1.0	 0.323	 1	 1	 0.0	 0.0	 0.0	 0.0	 0.0	 0.0	 0.0	 0.0	 0.0	 0.0	 0.0	 0.0; % PEL
	16571	 14.0	 -5.0	 15.0	 -15.0	 1.05	 40.0	 1	 29	 0.0	 0.0	 0.0	 0.0	 0.0	 0.0	 0.0	 0.0	 0.0	 0.0	 0.0	 0.0; % NG
	16670	 9.0	 1.0	 12.0	 -12.0	 1.0	 4.5	 1	 24	 0.0	 0.0	 0.0	 0.0	 0.0	 0.0	 0.0	 0.0	 0.0	 0.0	 0.0	 0.0; % NG
	16671	 2.0	 1.0	 4.0	 -4.0	 1.04	 3.4	 1	 8	 0.0	 0.0	 0.0	 0.0	 0.0	 0.0	 0.0	 0.0	 0.0	 0.0	 0.0	 0.0; % COW
	16672	 1.0	 1.0	 1.2	 -1.2	 1.04	 1.7	 1	 2	 0.0	 0.0	 0.0	 0.0	 0.0	 0.0	 0.0	 0.0	 0.0	 0.0	 0.0	 0.0; % PEL
	16674	 8.0	 -3.0	 6.0	 -6.0	 1.04	 18.7	 1	 11	 0.0	 0.0	 0.0	 0.0	 0.0	 0.0	 0.0	 0.0	 0.0	 0.0	 0.0	 0.0; % NG
	16675	 11.0	 -1.0	 22.0	 -22.0	 1.04	 8.0	 1	 44	 0.0	 0.0	 0.0	 0.0	 0.0	 0.0	 0.0	 0.0	 0.0	 0.0	 0.0	 0.0; % COW
	16873	 19.0	 9.0	 30.0	 -30.0	 1.05	 11.5	 1	 60	 1.0	 0.0	 0.0	 0.0	 0.0	 0.0	 0.0	 0.0	 0.0	 0.0	 0.0	 0.0; % COW
	17073	 36.0	 -5.0	 64.0	 -64.0	 1.05	 35.5	 1	 127	 2.5	 0.0	 0.0	 0.0	 0.0	 0.0	 0.0	 0.0	 0.0	 0.0	 0.0	 0.0; % PEL
	17074	 36.0	 -5.0	 23.0	 -25.0	 1.05	 35.5	 1	 44	 2.5	 0.0	 0.0	 0.0	 0.0	 0.0	 0.0	 0.0	 0.0	 0.0	 0.0	 0.0; % PEL
	17075	 2.0	 1.0	 2.0	 -2.0	 1.0	 1.98	 1	 3	 0.0	 0.0	 0.0	 0.0	 0.0	 0.0	 0.0	 0.0	 0.0	 0.0	 0.0	 0.0; % PEL
	17077	 2.0	 1.0	 4.0	 -4.0	 1.0	 1.2	 1	 7	 0.0	 0.0	 0.0	 0.0	 0.0	 0.0	 0.0	 0.0	 0.0	 0.0	 0.0	 0.0; % NG
	17671	 16.0	 4.0	 12.0	 -12.0	 1.05	 12.5	 1	 23	 1.5	 0.0	 0.0	 0.0	 0.0	 0.0	 0.0	 0.0	 0.0	 0.0	 0.0	 0.0; % COW
	17672	 16.0	 3.0	 14.0	 -14.0	 1.05	 12.5	 1	 28	 1.5	 0.0	 0.0	 0.0	 0.0	 0.0	 0.0	 0.0	 0.0	 0.0	 0.0	 0.0; % NG
	18471	 10.0	 2.0	 25.0	 -25.0	 1.04	 5.2	 1	 49	 0.0	 0.0	 0.0	 0.0	 0.0	 0.0	 0.0	 0.0	 0.0	 0.0	 0.0	 0.0; % PEL
	18472	 6.0	 1.0	 6.0	 -6.0	 1.0	 2.978	 1	 11	 0.0	 0.0	 0.0	 0.0	 0.0	 0.0	 0.0	 0.0	 0.0	 0.0	 0.0	 0.0; % NG
	19081	 5.0	 -1.0	 10.0	 -10.0	 1.04	 2.55	 1	 20	 0.0	 0.0	 0.0	 0.0	 0.0	 0.0	 0.0	 0.0	 0.0	 0.0	 0.0	 0.0; % PEL
	19082	 4.0	 -1.0	 5.0	 -5.0	 1.05	 1.7	 1	 9	 0.0	 0.0	 0.0	 0.0	 0.0	 0.0	 0.0	 0.0	 0.0	 0.0	 0.0	 0.0; % PEL
	19083	 3.0	 -1.0	 4.0	 -4.0	 1.04	 6.9	 1	 8	 0.0	 0.0	 0.0	 0.0	 0.0	 0.0	 0.0	 0.0	 0.0	 0.0	 0.0	 0.0; % PEL
	19084	 2.0	 -1.0	 2.0	 -2.0	 1.04	 4.6	 1	 4	 0.0	 0.0	 0.0	 0.0	 0.0	 0.0	 0.0	 0.0	 0.0	 0.0	 0.0	 0.0; % PEL
	19085	 27.0	 -5.0	 54.0	 -54.0	 1.04	 23.824	 1	 107	 0.0	 0.0	 0.0	 0.0	 0.0	 0.0	 0.0	 0.0	 0.0	 0.0	 0.0	 0.0; % PEL
	19101	 98.4	 0.0	 66.0	 -66.0	 1.075	 108.24	 0	 131	 17.0	 0.0	 0.0	 0.0	 0.0	 0.0	 0.0	 0.0	 0.0	 0.0	 0.0	 0.0; % NG
	19317	 0.0	 -1.0	 6.0	 -6.0	 1.05	 6.0	 1	 0	 0.0	 0.0	 0.0	 0.0	 0.0	 0.0	 0.0	 0.0	 0.0	 0.0	 0.0	 0.0; % SYNC
	19371	 7.0	 -2.0	 15.0	 -15.0	 1.05	 29.78	 1	 30	 0.0	 0.0	 0.0	 0.0	 0.0	 0.0	 0.0	 0.0	 0.0	 0.0	 0.0	 0.0; % COW
	19372	 7.0	 -1.0	 4.0	 -4.0	 1.05	 11.05	 1	 7	 0.0	 0.0	 0.0	 0.0	 0.0	 0.0	 0.0	 0.0	 0.0	 0.0	 0.0	 0.0; % NG
	19471	 146.0	 32.0	 94.0	 -82.0	 1.075	 153.0	 1	 164	 30.0	 0.0	 0.0	 0.0	 0.0	 0.0	 0.0	 0.0	 0.0	 0.0	 0.0	 0.0; % NG
	19472	 58.274	 0.0	 127.0	 -127.0	 1.075	 66.625	 0	 254	 9.85	 0.0	 0.0	 0.0	 0.0	 0.0	 0.0	 0.0	 0.0	 0.0	 0.0	 0.0; % NG
	19473	 58.274	 0.0	 41.0	 -41.0	 1.075	 66.625	 0	 81	 9.85	 0.0	 0.0	 0.0	 0.0	 0.0	 0.0	 0.0	 0.0	 0.0	 0.0	 0.0; % NG
	19601	 47.0	 4.0	 81.0	 -81.0	 1.0	 6.5	 1	 161	 0.0	 0.0	 0.0	 0.0	 0.0	 0.0	 0.0	 0.0	 0.0	 0.0	 0.0	 0.0; % NG
	19771	 21.0	 -4.0	 47.0	 -47.0	 1.05	 46.875	 1	 94	 0.0	 0.0	 0.0	 0.0	 0.0	 0.0	 0.0	 0.0	 0.0	 0.0	 0.0	 0.0; % NG
	19772	 13.0	 -1.0	 30.0	 -30.0	 1.05	 8.5	 1	 59	 0.0	 0.0	 0.0	 0.0	 0.0	 0.0	 0.0	 0.0	 0.0	 0.0	 0.0	 0.0; % NG
	19773	 16.0	 -3.0	 36.0	 -36.0	 1.05	 38.714	 1	 71	 0.0	 0.0	 0.0	 0.0	 0.0	 0.0	 0.0	 0.0	 0.0	 0.0	 0.0	 0.0; % PEL
	19971	 9.0	 -3.0	 20.0	 -20.0	 1.05	 20.7	 1	 40	 0.0	 0.0	 0.0	 0.0	 0.0	 0.0	 0.0	 0.0	 0.0	 0.0	 0.0	 0.0; % NG
	19972	 6.0	 -2.0	 10.0	 -10.0	 1.05	 2.3	 1	 19	 0.0	 0.0	 0.0	 0.0	 0.0	 0.0	 0.0	 0.0	 0.0	 0.0	 0.0	 0.0; % PEL
	19973	 6.0	 -2.0	 10.0	 -10.0	 1.05	 2.3	 1	 20	 0.0	 0.0	 0.0	 0.0	 0.0	 0.0	 0.0	 0.0	 0.0	 0.0	 0.0	 0.0; % PEL
	19974	 22.0	 -17.0	 20.4	 -20.4	 1.05	 16.1	 1	 34	 0.0	 0.0	 0.0	 0.0	 0.0	 0.0	 0.0	 0.0	 0.0	 0.0	 0.0	 0.0; % NG
	21071	 3.0	 -1.0	 6.0	 -6.0	 1.05	 0.85	 1	 11	 0.0	 0.0	 0.0	 0.0	 0.0	 0.0	 0.0	 0.0	 0.0	 0.0	 0.0	 0.0; % PEL
	21371	 20.0	 -9.0	 18.0	 -18.0	 1.05	 31.73	 1	 36	 0.0	 0.0	 0.0	 0.0	 0.0	 0.0	 0.0	 0.0	 0.0	 0.0	 0.0	 0.0; % PEL
	21372	 19.0	 -5.0	 19.0	 -19.0	 1.05	 23.38	 1	 38	 0.0	 0.0	 0.0	 0.0	 0.0	 0.0	 0.0	 0.0	 0.0	 0.0	 0.0	 0.0; % PEL
	21871	 1.0	 -1.0	 1.2	 -1.2	 1.01	 1.7	 1	 2	 0.0	 0.0	 0.0	 0.0	 0.0	 0.0	 0.0	 0.0	 0.0	 0.0	 0.0	 0.0; % PEL
	21872	 2.0	 -1.0	 2.0	 -2.0	 1.01	 2.7	 1	 4	 0.0	 0.0	 0.0	 0.0	 0.0	 0.0	 0.0	 0.0	 0.0	 0.0	 0.0	 0.0; % PEL
	21873	 1.274	 0.0	 1.0	 -1.0	 1.0	 1.6	 0	 2	 0.0	 0.0	 0.0	 0.0	 0.0	 0.0	 0.0	 0.0	 0.0	 0.0	 0.0	 0.0; % PEL
	22273	 4.0	 -1.0	 3.0	 -3.0	 1.0	 4.0	 1	 5	 0.0	 0.0	 0.0	 0.0	 0.0	 0.0	 0.0	 0.0	 0.0	 0.0	 0.0	 0.0; % NG
	22274	 9.0	 -1.0	 20.0	 -20.0	 1.0	 5.94	 1	 39	 0.0	 0.0	 0.0	 0.0	 0.0	 0.0	 0.0	 0.0	 0.0	 0.0	 0.0	 0.0; % NG
	22275	 2.0	 -1.0	 1.2	 -1.2	 1.0	 4.25	 1	 2	 0.0	 0.0	 0.0	 0.0	 0.0	 0.0	 0.0	 0.0	 0.0	 0.0	 0.0	 0.0; % NG
	22276	 4.0	 1.0	 7.0	 -7.0	 1.0	 6.68	 1	 14	 0.0	 0.0	 0.0	 0.0	 0.0	 0.0	 0.0	 0.0	 0.0	 0.0	 0.0	 0.0; % PEL
	22278	 8.0	 1.0	 12.0	 -12.0	 1.0	 4.62	 1	 23	 0.0	 0.0	 0.0	 0.0	 0.0	 0.0	 0.0	 0.0	 0.0	 0.0	 0.0	 0.0; % NG
	22292	 6.0	 0.0	 5.0	 -5.0	 1.0	 6.0	 0	 9	 0.0	 0.0	 0.0	 0.0	 0.0	 0.0	 0.0	 0.0	 0.0	 0.0	 0.0	 0.0; % PEL
	22371	 28.0	 -3.0	 51.0	 -51.0	 1.05	 59.5	 1	 101	 0.0	 0.0	 0.0	 0.0	 0.0	 0.0	 0.0	 0.0	 0.0	 0.0	 0.0	 0.0; % COW
	22471	 3.0	 1.0	 2.0	 -2.0	 1.04	 2.55	 1	 3	 0.0	 0.0	 0.0	 0.0	 0.0	 0.0	 0.0	 0.0	 0.0	 0.0	 0.0	 0.0; % PEL
	22472	 3.0	 1.0	 5.0	 -5.0	 1.04	 4.25	 1	 10	 0.0	 0.0	 0.0	 0.0	 0.0	 0.0	 0.0	 0.0	 0.0	 0.0	 0.0	 0.0; % NG
	22473	 9.0	 2.0	 18.0	 -18.0	 1.01	 4.25	 1	 36	 0.0	 0.0	 0.0	 0.0	 0.0	 0.0	 0.0	 0.0	 0.0	 0.0	 0.0	 0.0; % NG
	22671	 52.1	 0.0	 40.0	 -40.0	 1.05	 62.0	 0	 80	 0.6	 0.0	 0.0	 0.0	 0.0	 0.0	 0.0	 0.0	 0.0	 0.0	 0.0	 0.0; % PEL
	22672	 52.1	 0.0	 42.0	 -42.0	 1.05	 62.0	 0	 84	 0.6	 0.0	 0.0	 0.0	 0.0	 0.0	 0.0	 0.0	 0.0	 0.0	 0.0	 0.0; % NG
	22871	 6.0	 1.0	 10.0	 -10.0	 1.01	 2.4	 1	 20	 0.0	 0.0	 0.0	 0.0	 0.0	 0.0	 0.0	 0.0	 0.0	 0.0	 0.0	 0.0; % NG
	25604	 1.6	 0.0	 3.0	 -3.0	 1.0	 1.7	 0	 6	 0.0	 0.0	 0.0	 0.0	 0.0	 0.0	 0.0	 0.0	 0.0	 0.0	 0.0	 0.0; % PEL
	26771	 9.0	 -3.0	 10.0	 -10.0	 1.05	 26.0	 1	 16	 0.0	 0.0	 0.0	 0.0	 0.0	 0.0	 0.0	 0.0	 0.0	 0.0	 0.0	 0.0; % NG
	26772	 13.0	 -1.0	 15.0	 -15.0	 1.075	 6.0	 1	 30	 3.0	 0.0	 0.0	 0.0	 0.0	 0.0	 0.0	 0.0	 0.0	 0.0	 0.0	 0.0; % NG
	26773	 15.0	 -13.0	 16.0	 -16.0	 1.05	 22.0	 1	 31	 0.0	 0.0	 0.0	 0.0	 0.0	 0.0	 0.0	 0.0	 0.0	 0.0	 0.0	 0.0; % PEL
	26774	 13.0	 -1.0	 7.0	 -7.0	 1.075	 6.0	 1	 13	 3.0	 0.0	 0.0	 0.0	 0.0	 0.0	 0.0	 0.0	 0.0	 0.0	 0.0	 0.0; % NG
	27071	 1.0	 -1.0	 1.2	 -1.2	 1.0	 0.8	 1	 2	 0.0	 0.0	 0.0	 0.0	 0.0	 0.0	 0.0	 0.0	 0.0	 0.0	 0.0	 0.0; % NG
	27204	 132.0	 7.0	 135.0	 -135.0	 1.04	 5.0	 1	 270	 0.0	 0.0	 0.0	 0.0	 0.0	 0.0	 0.0	 0.0	 0.0	 0.0	 0.0	 0.0; % NG
	27361	 0.0	 -3.0	 12.3	 -12.3	 1.05	 12.3	 1	 0	 0.0	 0.0	 0.0	 0.0	 0.0	 0.0	 0.0	 0.0	 0.0	 0.0	 0.0	 0.0; % SYNC
	27371	 7.0	 4.0	 7.0	 -7.0	 1.05	 14.45	 1	 13	 0.0	 0.0	 0.0	 0.0	 0.0	 0.0	 0.0	 0.0	 0.0	 0.0	 0.0	 0.0; % NG
	27372	 7.0	 2.0	 6.0	 -6.0	 1.05	 18.75	 1	 12	 0.0	 0.0	 0.0	 0.0	 0.0	 0.0	 0.0	 0.0	 0.0	 0.0	 0.0	 0.0; % PEL
	27374	 6.0	 1.0	 5.0	 -5.0	 1.05	 6.25	 1	 10	 0.0	 0.0	 0.0	 0.0	 0.0	 0.0	 0.0	 0.0	 0.0	 0.0	 0.0	 0.0; % NG
	27471	 57.0	 0.0	 57.0	 -57.0	 1.075	 75.0	 0	 113	 12.5	 0.0	 0.0	 0.0	 0.0	 0.0	 0.0	 0.0	 0.0	 0.0	 0.0	 0.0; % PEL
	27472	 51.8	 0.0	 55.0	 -55.0	 1.075	 75.0	 0	 110	 12.5	 0.0	 0.0	 0.0	 0.0	 0.0	 0.0	 0.0	 0.0	 0.0	 0.0	 0.0; % NG
	27473	 121.0	 0.0	 160.0	 -160.0	 1.075	 150.0	 0	 320	 15.0	 0.0	 0.0	 0.0	 0.0	 0.0	 0.0	 0.0	 0.0	 0.0	 0.0	 0.0; % NG
	27474	 387.0	 -16.0	 329.0	 -329.0	 1.075	 570.6	 1	 658	 117.5	 0.0	 0.0	 0.0	 0.0	 0.0	 0.0	 0.0	 0.0	 0.0	 0.0	 0.0; % COW
	27771	 18.0	 -10.0	 39.0	 -39.0	 1.05	 41.4	 1	 77	 0.0	 0.0	 0.0	 0.0	 0.0	 0.0	 0.0	 0.0	 0.0	 0.0	 0.0	 0.0; % NG
	27772	 5.0	 -2.0	 10.0	 -10.0	 1.0	 11.912	 1	 19	 0.0	 0.0	 0.0	 0.0	 0.0	 0.0	 0.0	 0.0	 0.0	 0.0	 0.0	 0.0; % PEL
	27773	 5.0	 -1.0	 3.0	 -3.0	 1.0	 4.6	 1	 5	 0.0	 0.0	 0.0	 0.0	 0.0	 0.0	 0.0	 0.0	 0.0	 0.0	 0.0	 0.0; % NG
	27774	 19.0	 -2.0	 26.0	 -26.0	 1.05	 18.4	 1	 51	 0.0	 0.0	 0.0	 0.0	 0.0	 0.0	 0.0	 0.0	 0.0	 0.0	 0.0	 0.0; % PEL
	27871	 3.0	 1.0	 6.0	 -6.0	 1.04	 3.3	 1	 12	 0.0	 0.0	 0.0	 0.0	 0.0	 0.0	 0.0	 0.0	 0.0	 0.0	 0.0	 0.0; % PEL
	28071	 8.0	 -2.0	 12.0	 -12.0	 1.05	 15.0	 1	 24	 0.0	 0.0	 0.0	 0.0	 0.0	 0.0	 0.0	 0.0	 0.0	 0.0	 0.0	 0.0; % NG
	28271	 3.0	 -1.0	 3.0	 -3.0	 1.04	 3.34	 1	 5	 0.0	 0.0	 0.0	 0.0	 0.0	 0.0	 0.0	 0.0	 0.0	 0.0	 0.0	 0.0; % PEL
	28571	 223.0	 5.0	 282.1	 -190.0	 1.04	 535.5	 1	 269	 55.05	 0.0	 0.0	 0.0	 0.0	 0.0	 0.0	 0.0	 0.0	 0.0	 0.0	 0.0; % COW
	28871	 8.0	 -2.0	 7.0	 -7.0	 1.0	 6.68	 1	 14	 0.0	 0.0	 0.0	 0.0	 0.0	 0.0	 0.0	 0.0	 0.0	 0.0	 0.0	 0.0; % PEL
	28872	 9.0	 -4.0	 7.0	 -7.0	 1.0	 13.8	 1	 14	 0.0	 0.0	 0.0	 0.0	 0.0	 0.0	 0.0	 0.0	 0.0	 0.0	 0.0	 0.0; % NG
	28873	 9.0	 -5.0	 13.0	 -13.0	 1.0	 18.4	 1	 26	 0.0	 0.0	 0.0	 0.0	 0.0	 0.0	 0.0	 0.0	 0.0	 0.0	 0.0	 0.0; % NG
	28874	 27.0	 3.0	 17.0	 -17.0	 1.0	 27.6	 1	 33	 0.0	 0.0	 0.0	 0.0	 0.0	 0.0	 0.0	 0.0	 0.0	 0.0	 0.0	 0.0; % NG
	29671	 83.0	 5.0	 107.0	 -60.0	 1.075	 150.0	 1	 119	 20.0	 0.0	 0.0	 0.0	 0.0	 0.0	 0.0	 0.0	 0.0	 0.0	 0.0	 0.0; % NG
	29672	 243.0	 2.0	 478.0	 -478.0	 1.075	 288.0	 1	 956	 69.0	 0.0	 0.0	 0.0	 0.0	 0.0	 0.0	 0.0	 0.0	 0.0	 0.0	 0.0; % COW
	29673	 401.0	 77.0	 255.0	 -242.0	 1.075	 473.0	 1	 484	 97.0	 0.0	 0.0	 0.0	 0.0	 0.0	 0.0	 0.0	 0.0	 0.0	 0.0	 0.0; % COW
	30671	 27.0	 11.0	 50.0	 -50.0	 1.05	 21.4	 1	 99	 2.0	 0.0	 0.0	 0.0	 0.0	 0.0	 0.0	 0.0	 0.0	 0.0	 0.0	 0.0; % COW
	30671	 24.0	 11.0	 24.0	 -24.0	 1.05	 5.7	 1	 48	 0.5	 0.0	 0.0	 0.0	 0.0	 0.0	 0.0	 0.0	 0.0	 0.0	 0.0	 0.0; % NG
	31071	 7.0	 2.0	 6.0	 -6.0	 1.01	 2.55	 1	 11	 0.0	 0.0	 0.0	 0.0	 0.0	 0.0	 0.0	 0.0	 0.0	 0.0	 0.0	 0.0; % PEL
	31074	 7.0	 2.0	 7.0	 -7.0	 1.04	 2.55	 1	 14	 0.0	 0.0	 0.0	 0.0	 0.0	 0.0	 0.0	 0.0	 0.0	 0.0	 0.0	 0.0; % PEL
	31271	 267.0	 542.0	 650.4	 -650.4	 1.075	 500.0	 1	 452	 81.5	 0.0	 0.0	 0.0	 0.0	 0.0	 0.0	 0.0	 0.0	 0.0	 0.0	 0.0; % NG
	32404	 4.26	 0.0	 8.0	 -8.0	 1.04	 4.8	 0	 16	 0.0	 0.0	 0.0	 0.0	 0.0	 0.0	 0.0	 0.0	 0.0	 0.0	 0.0	 0.0; % NG
	32570	 14.0	 -3.0	 19.0	 -19.0	 1.0	 46.875	 1	 38	 0.0	 0.0	 0.0	 0.0	 0.0	 0.0	 0.0	 0.0	 0.0	 0.0	 0.0	 0.0; % NG
	32576	 10.0	 -2.0	 23.0	 -23.0	 1.0	 11.2	 1	 46	 0.0	 0.0	 0.0	 0.0	 0.0	 0.0	 0.0	 0.0	 0.0	 0.0	 0.0	 0.0; % NG
	32577	 7.0	 -1.0	 6.0	 -6.0	 1.0	 3.6	 1	 12	 0.0	 0.0	 0.0	 0.0	 0.0	 0.0	 0.0	 0.0	 0.0	 0.0	 0.0	 0.0; % NG
	32578	 1.25	 0.0	 2.0	 -2.0	 1.0	 1.25	 0	 4	 0.0	 0.0	 0.0	 0.0	 0.0	 0.0	 0.0	 0.0	 0.0	 0.0	 0.0	 0.0; % PEL
	32604	 7.5	 0.0	 10.0	 -10.0	 1.05	 8.5	 0	 19	 1.0	 0.0	 0.0	 0.0	 0.0	 0.0	 0.0	 0.0	 0.0	 0.0	 0.0	 0.0; % PEL
	32604	 0.18	 0.0	 0.0	 0.0	 1.05	 0.2	 0	 0	 0.0	 0.0	 0.0	 0.0	 0.0	 0.0	 0.0	 0.0	 0.0	 0.0	 0.0	 0.0; % PEL
	33071	 8.0	 2.0	 4.0	 -4.0	 1.0	 4.0	 1	 8	 0.0	 0.0	 0.0	 0.0	 0.0	 0.0	 0.0	 0.0	 0.0	 0.0	 0.0	 0.0; % NG
	33072	 4.0	 2.0	 5.0	 -5.0	 1.0	 9.35	 1	 9	 0.0	 0.0	 0.0	 0.0	 0.0	 0.0	 0.0	 0.0	 0.0	 0.0	 0.0	 0.0; % COW
	33971	 26.0	 3.0	 28.6	 -28.6	 1.05	 104.23	 1	 55	 0.0	 0.0	 0.0	 0.0	 0.0	 0.0	 0.0	 0.0	 0.0	 0.0	 0.0	 0.0; % NG
	35071	 10.0	 1.0	 8.0	 -8.0	 1.01	 4.6	 1	 15	 0.0	 0.0	 0.0	 0.0	 0.0	 0.0	 0.0	 0.0	 0.0	 0.0	 0.0	 0.0; % PEL
	35074	 182.0	 -16.0	 113.0	 -113.0	 1.05	 121.1	 1	 226	 35.0	 0.0	 0.0	 0.0	 0.0	 0.0	 0.0	 0.0	 0.0	 0.0	 0.0	 0.0; % NG
	35871	 6.0	 2.0	 5.0	 -5.0	 1.04	 2.55	 1	 9	 0.0	 0.0	 0.0	 0.0	 0.0	 0.0	 0.0	 0.0	 0.0	 0.0	 0.0	 0.0; % PEL
	35872	 6.0	 2.0	 14.0	 -14.0	 1.04	 2.55	 1	 28	 0.0	 0.0	 0.0	 0.0	 0.0	 0.0	 0.0	 0.0	 0.0	 0.0	 0.0	 0.0; % PEL
	35873	 6.0	 1.0	 10.0	 -10.0	 1.04	 3.2	 1	 20	 0.0	 0.0	 0.0	 0.0	 0.0	 0.0	 0.0	 0.0	 0.0	 0.0	 0.0	 0.0; % NG
	35875	 11.0	 -3.0	 20.0	 -20.0	 1.04	 17.7	 1	 40	 0.0	 0.0	 0.0	 0.0	 0.0	 0.0	 0.0	 0.0	 0.0	 0.0	 0.0	 0.0; % NG
	35876	 6.0	 -1.0	 13.0	 -13.0	 1.04	 11.88	 1	 25	 0.0	 0.0	 0.0	 0.0	 0.0	 0.0	 0.0	 0.0	 0.0	 0.0	 0.0	 0.0; % COW
	35877	 3.0	 1.0	 5.0	 -5.0	 1.04	 5.4	 1	 10	 0.0	 0.0	 0.0	 0.0	 0.0	 0.0	 0.0	 0.0	 0.0	 0.0	 0.0	 0.0; % NG
	36271	 29.0	 4.0	 16.0	 -16.0	 1.05	 36.0	 1	 31	 0.0	 0.0	 0.0	 0.0	 0.0	 0.0	 0.0	 0.0	 0.0	 0.0	 0.0	 0.0; % NG
	36272	 24.0	 3.0	 44.0	 -75.0	 1.05	 20.0	 1	 88	 0.0	 0.0	 0.0	 0.0	 0.0	 0.0	 0.0	 0.0	 0.0	 0.0	 0.0	 0.0; % COW
	36471	 8.0	 -1.0	 5.0	 -5.0	 1.05	 15.0	 1	 10	 0.0	 0.0	 0.0	 0.0	 0.0	 0.0	 0.0	 0.0	 0.0	 0.0	 0.0	 0.0; % NG
	36472	 4.0	 -1.0	 4.0	 -4.0	 1.04	 4.6	 1	 8	 0.0	 0.0	 0.0	 0.0	 0.0	 0.0	 0.0	 0.0	 0.0	 0.0	 0.0	 0.0; % PEL
	36473	 4.0	 -1.0	 8.0	 -8.0	 1.0	 4.6	 1	 16	 0.0	 0.0	 0.0	 0.0	 0.0	 0.0	 0.0	 0.0	 0.0	 0.0	 0.0	 0.0; % NG
	36474	 4.0	 1.0	 3.0	 -3.0	 1.04	 4.0	 1	 5	 0.0	 0.0	 0.0	 0.0	 0.0	 0.0	 0.0	 0.0	 0.0	 0.0	 0.0	 0.0; % NG
	36475	 5.0	 -1.0	 4.0	 -4.0	 1.04	 4.6	 1	 7	 0.0	 0.0	 0.0	 0.0	 0.0	 0.0	 0.0	 0.0	 0.0	 0.0	 0.0	 0.0; % PEL
	36476	 12.0	 -1.0	 26.0	 -26.0	 1.04	 17.868	 1	 51	 0.0	 0.0	 0.0	 0.0	 0.0	 0.0	 0.0	 0.0	 0.0	 0.0	 0.0	 0.0; % NG
	38071	 5.0	 -1.0	 5.0	 -5.0	 1.01	 1.6	 1	 10	 0.0	 0.0	 0.0	 0.0	 0.0	 0.0	 0.0	 0.0	 0.0	 0.0	 0.0	 0.0; % PEL
	38244	 1.0	 0.0	 2.0	 -2.0	 1.0	 6.5	 0	 3	 0.0	 0.0	 0.0	 0.0	 0.0	 0.0	 0.0	 0.0	 0.0	 0.0	 0.0	 0.0; % NG
	38271	 3.0	 -1.0	 5.0	 -5.0	 1.04	 11.69	 1	 10	 0.0	 0.0	 0.0	 0.0	 0.0	 0.0	 0.0	 0.0	 0.0	 0.0	 0.0	 0.0; % NG
	38272	 5.0	 -2.0	 9.0	 -9.0	 1.04	 5.01	 1	 18	 0.0	 0.0	 0.0	 0.0	 0.0	 0.0	 0.0	 0.0	 0.0	 0.0	 0.0	 0.0; % PEL
	38273	 4.0	 -2.0	 8.0	 -8.0	 1.05	 8.35	 1	 16	 0.0	 0.0	 0.0	 0.0	 0.0	 0.0	 0.0	 0.0	 0.0	 0.0	 0.0	 0.0; % COW
	38870	 11.0	 3.0	 9.0	 -9.0	 1.04	 25.3	 1	 18	 0.0	 0.0	 0.0	 0.0	 0.0	 0.0	 0.0	 0.0	 0.0	 0.0	 0.0	 0.0; % PEL
	38871	 9.0	 1.0	 15.0	 -15.0	 1.0	 10.0	 1	 30	 0.0	 0.0	 0.0	 0.0	 0.0	 0.0	 0.0	 0.0	 0.0	 0.0	 0.0	 0.0; % NG
	39471	 233.0	 66.0	 381.0	 -381.0	 1.05	 359.0	 1	 762	 49.5	 0.0	 0.0	 0.0	 0.0	 0.0	 0.0	 0.0	 0.0	 0.0	 0.0	 0.0; % COW
	39472	 177.0	 15.0	 420.0	 -420.0	 1.05	 359.0	 1	 839	 49.5	 0.0	 0.0	 0.0	 0.0	 0.0	 0.0	 0.0	 0.0	 0.0	 0.0	 0.0; % COW
	39473	 231.0	 63.0	 191.0	 -191.0	 1.05	 359.0	 1	 381	 49.5	 0.0	 0.0	 0.0	 0.0	 0.0	 0.0	 0.0	 0.0	 0.0	 0.0	 0.0; % COW
	39675	 90.0	 0.0	 84.0	 -84.0	 1.05	 100.9	 0	 167	 30.0	 0.0	 0.0	 0.0	 0.0	 0.0	 0.0	 0.0	 0.0	 0.0	 0.0	 0.0; % NG
	40471	 5.0	 1.0	 9.0	 -9.0	 1.05	 6.9	 1	 18	 0.0	 0.0	 0.0	 0.0	 0.0	 0.0	 0.0	 0.0	 0.0	 0.0	 0.0	 0.0; % NG
	40771	 14.0	 -13.0	 15.6	 -15.6	 1.05	 52.9	 1	 25	 0.0	 0.0	 0.0	 0.0	 0.0	 0.0	 0.0	 0.0	 0.0	 0.0	 0.0	 0.0; % NG
	40772	 13.0	 7.0	 21.0	 -21.0	 1.05	 19.5	 1	 41	 0.0	 0.0	 0.0	 0.0	 0.0	 0.0	 0.0	 0.0	 0.0	 0.0	 0.0	 0.0; % NG
	40773	 13.0	 6.0	 8.0	 -8.0	 1.05	 16.1	 1	 16	 0.0	 0.0	 0.0	 0.0	 0.0	 0.0	 0.0	 0.0	 0.0	 0.0	 0.0	 0.0; % NG
	42271	 3.0	 -2.0	 6.0	 -6.0	 1.01	 6.0	 1	 12	 0.0	 0.0	 0.0	 0.0	 0.0	 0.0	 0.0	 0.0	 0.0	 0.0	 0.0	 0.0; % PEL
	42404	 15.0	 0.0	 10.0	 -10.0	 1.0	 20.0	 0	 19	 3.0	 0.0	 0.0	 0.0	 0.0	 0.0	 0.0	 0.0	 0.0	 0.0	 0.0	 0.0; % PEL
	42404	 15.0	 0.0	 18.0	 -18.0	 1.0	 20.0	 0	 35	 3.0	 0.0	 0.0	 0.0	 0.0	 0.0	 0.0	 0.0	 0.0	 0.0	 0.0	 0.0; % NG
	42404	 15.0	 0.0	 20.0	 -20.0	 1.0	 20.0	 0	 39	 3.0	 0.0	 0.0	 0.0	 0.0	 0.0	 0.0	 0.0	 0.0	 0.0	 0.0	 0.0; % NG
	42474	 118.0	 0.0	 64.0	 -64.0	 1.075	 132.1	 0	 127	 20.0	 0.0	 0.0	 0.0	 0.0	 0.0	 0.0	 0.0	 0.0	 0.0	 0.0	 0.0; % NG
	42475	 109.5	 0.0	 163.0	 -163.0	 1.075	 132.1	 0	 325	 10.0	 0.0	 0.0	 0.0	 0.0	 0.0	 0.0	 0.0	 0.0	 0.0	 0.0	 0.0; % NG
	42501	 102.0	 0.0	 90.0	 -66.0	 1.075	 140.0	 0	 131	 17.5	 0.0	 0.0	 0.0	 0.0	 0.0	 0.0	 0.0	 0.0	 0.0	 0.0	 0.0; % NG
	42672	 6.0	 1.0	 9.0	 -9.0	 1.01	 2.55	 1	 17	 0.0	 0.0	 0.0	 0.0	 0.0	 0.0	 0.0	 0.0	 0.0	 0.0	 0.0	 0.0; % PEL
	42673	 8.0	 1.0	 15.0	 -15.0	 1.01	 4.6	 1	 30	 0.0	 0.0	 0.0	 0.0	 0.0	 0.0	 0.0	 0.0	 0.0	 0.0	 0.0	 0.0; % NG
	42674	 6.0	 1.0	 9.0	 -9.0	 1.01	 2.55	 1	 17	 0.0	 0.0	 0.0	 0.0	 0.0	 0.0	 0.0	 0.0	 0.0	 0.0	 0.0	 0.0; % PEL
	43671	 11.0	 3.0	 12.0	 -12.0	 1.0	 6.9	 1	 23	 0.0	 0.0	 0.0	 0.0	 0.0	 0.0	 0.0	 0.0	 0.0	 0.0	 0.0	 0.0; % PEL
	43672	 5.0	 1.0	 12.0	 -12.0	 1.0	 2.3	 1	 23	 0.0	 0.0	 0.0	 0.0	 0.0	 0.0	 0.0	 0.0	 0.0	 0.0	 0.0	 0.0; % PEL
	43774	 19.0	 -7.0	 20.0	 -20.0	 1.05	 36.8	 1	 39	 0.0	 0.0	 0.0	 0.0	 0.0	 0.0	 0.0	 0.0	 0.0	 0.0	 0.0	 0.0; % NG
	44471	 15.0	 -1.0	 20.0	 -20.0	 1.05	 18.8	 1	 40	 2.5	 0.0	 0.0	 0.0	 0.0	 0.0	 0.0	 0.0	 0.0	 0.0	 0.0	 0.0; % NG
	44471	 15.0	 -1.0	 9.0	 -10.0	 1.05	 18.8	 1	 16	 2.5	 0.0	 0.0	 0.0	 0.0	 0.0	 0.0	 0.0	 0.0	 0.0	 0.0	 0.0; % COW
	44471	 11.0	 -1.0	 14.0	 -14.0	 1.05	 5.0	 1	 27	 0.5	 0.0	 0.0	 0.0	 0.0	 0.0	 0.0	 0.0	 0.0	 0.0	 0.0	 0.0; % NG
	46801	 6.5	 0.0	 4.0	 -4.0	 1.0	 6.75	 0	 8	 1.0	 0.0	 0.0	 0.0	 0.0	 0.0	 0.0	 0.0	 0.0	 0.0	 0.0	 0.0; % PEL
...
];

%% generator cost data
%	2	startup	shutdown	n	c(n-1)	...	c0
mpc.gencost = [
	2	 0.0	 0.0	 3	   0.000000	   6.297545	   0.000000; % PEL
	2	 0.0	 0.0	 3	   0.000000	   0.971251	   0.000000; % NG
	2	 0.0	 0.0	 3	   0.000000	   0.825388	   0.000000; % NG
	2	 0.0	 0.0	 3	   0.000000	   6.274918	   0.000000; % PEL
	2	 0.0	 0.0	 3	   0.000000	   7.257453	   0.000000; % PEL
	2	 0.0	 0.0	 3	   0.000000	   6.700789	   0.000000; % PEL
	2	 0.0	 0.0	 3	   0.000000	   1.138131	   0.000000; % COW
	2	 0.0	 0.0	 3	   0.000000	   0.712247	   0.000000; % COW
	2	 0.0	 0.0	 3	   0.000000	   1.202641	   0.000000; % NG
	2	 0.0	 0.0	 3	   0.000000	   0.988011	   0.000000; % NG
	2	 0.0	 0.0	 3	   0.000000	   1.319041	   0.000000; % NG
	2	 0.0	 0.0	 3	   0.000000	   6.367591	   0.000000; % PEL
	2	 0.0	 0.0	 3	   0.000000	   1.017541	   0.000000; % NG
	2	 0.0	 0.0	 3	   0.000000	   6.985583	   0.000000; % PEL
	2	 0.0	 0.0	 3	   0.000000	   0.926615	   0.000000; % NG
	2	 0.0	 0.0	 3	   0.000000	   6.585773	   0.000000; % PEL
	2	 0.0	 0.0	 3	   0.000000	   0.823146	   0.000000; % NG
	2	 0.0	 0.0	 3	   0.000000	   0.863145	   0.000000; % NG
	2	 0.0	 0.0	 3	   0.000000	   0.835774	   0.000000; % NG
	2	 0.0	 0.0	 3	   0.000000	   1.303851	   0.000000; % NG
	2	 0.0	 0.0	 3	   0.000000	   1.212599	   0.000000; % NG
	2	 0.0	 0.0	 3	   0.000000	   7.258960	   0.000000; % PEL
	2	 0.0	 0.0	 3	   0.000000	   0.899586	   0.000000; % NG
	2	 0.0	 0.0	 3	   0.000000	   0.782072	   0.000000; % COW
	2	 0.0	 0.0	 3	   0.000000	   7.123178	   0.000000; % PEL
	2	 0.0	 0.0	 3	   0.000000	   0.720373	   0.000000; % NG
	2	 0.0	 0.0	 3	   0.000000	   0.888244	   0.000000; % NG
	2	 0.0	 0.0	 3	   0.000000	   7.279957	   0.000000; % PEL
	2	 0.0	 0.0	 3	   0.000000	   7.096188	   0.000000; % PEL
	2	 0.0	 0.0	 3	   0.000000	   6.847554	   0.000000; % PEL
	2	 0.0	 0.0	 3	   0.000000	   1.141031	   0.000000; % NG
	2	 0.0	 0.0	 3	   0.000000	   0.757132	   0.000000; % NG
	2	 0.0	 0.0	 3	   0.000000	   1.208145	   0.000000; % NG
	2	 0.0	 0.0	 3	   0.000000	   7.330428	   0.000000; % PEL
	2	 0.0	 0.0	 3	   0.000000	   7.014043	   0.000000; % PEL
	2	 0.0	 0.0	 3	   0.000000	   0.974850	   0.000000; % NG
	2	 0.0	 0.0	 3	   0.000000	   0.635003	   0.000000; % NG
	2	 0.0	 0.0	 3	   0.000000	   1.029555	   0.000000; % NG
	2	 0.0	 0.0	 3	   0.000000	   7.191370	   0.000000; % PEL
	2	 0.0	 0.0	 3	   0.000000	   7.417322	   0.000000; % PEL
	2	 0.0	 0.0	 3	   0.000000	   0.953681	   0.000000; % NG
	2	 0.0	 0.0	 3	   0.000000	   1.059200	   0.000000; % NG
	2	 0.0	 0.0	 3	   0.000000	   7.671768	   0.000000; % PEL
	2	 0.0	 0.0	 3	   0.000000	   6.446323	   0.000000; % PEL
	2	 0.0	 0.0	 3	   0.000000	   7.209512	   0.000000; % PEL
	2	 0.0	 0.0	 3	   0.000000	   1.071944	   0.000000; % NG
	2	 0.0	 0.0	 3	   0.000000	   0.810561	   0.000000; % NG
	2	 0.0	 0.0	 3	   0.000000	   0.697512	   0.000000; % NG
	2	 0.0	 0.0	 3	   0.000000	   1.244335	   0.000000; % COW
	2	 0.0	 0.0	 3	   0.000000	   1.336676	   0.000000; % NG
	2	 0.0	 0.0	 3	   0.000000	   0.732064	   0.000000; % NG
	2	 0.0	 0.0	 3	   0.000000	   0.833002	   0.000000; % COW
	2	 0.0	 0.0	 3	   0.000000	   7.605037	   0.000000; % PEL
	2	 0.0	 0.0	 3	   0.000000	   0.679591	   0.000000; % NG
	2	 0.0	 0.0	 3	   0.000000	   0.650540	   0.000000; % NG
	2	 0.0	 0.0	 3	   0.000000	   1.394982	   0.000000; % COW
	2	 0.0	 0.0	 3	   0.000000	   7.591822	   0.000000; % PEL
	2	 0.0	 0.0	 3	   0.000000	   1.222119	   0.000000; % NG
	2	 0.0	 0.0	 3	   0.000000	   1.247240	   0.000000; % COW
	2	 0.0	 0.0	 3	   0.000000	   1.001563	   0.000000; % COW
	2	 0.0	 0.0	 3	   0.000000	   7.010292	   0.000000; % PEL
	2	 0.0	 0.0	 3	   0.000000	   6.985822	   0.000000; % PEL
	2	 0.0	 0.0	 3	   0.000000	   7.108804	   0.000000; % PEL
	2	 0.0	 0.0	 3	   0.000000	   0.887725	   0.000000; % NG
	2	 0.0	 0.0	 3	   0.000000	   0.593607	   0.000000; % COW
	2	 0.0	 0.0	 3	   0.000000	   1.058217	   0.000000; % NG
	2	 0.0	 0.0	 3	   0.000000	   6.345030	   0.000000; % PEL
	2	 0.0	 0.0	 3	   0.000000	   0.938490	   0.000000; % NG
	2	 0.0	 0.0	 3	   0.000000	   6.685527	   0.000000; % PEL
	2	 0.0	 0.0	 3	   0.000000	   7.246653	   0.000000; % PEL
	2	 0.0	 0.0	 3	   0.000000	   6.341054	   0.000000; % PEL
	2	 0.0	 0.0	 3	   0.000000	   7.120173	   0.000000; % PEL
	2	 0.0	 0.0	 3	   0.000000	   7.209615	   0.000000; % PEL
	2	 0.0	 0.0	 3	   0.000000	   1.060177	   0.000000; % NG
	2	 0.0	 0.0	 3	   0.000000	   0.000000	   0.000000; % SYNC
	2	 0.0	 0.0	 3	   0.000000	   0.703032	   0.000000; % COW
	2	 0.0	 0.0	 3	   0.000000	   0.841904	   0.000000; % NG
	2	 0.0	 0.0	 3	   0.000000	   1.196696	   0.000000; % NG
	2	 0.0	 0.0	 3	   0.000000	   0.870885	   0.000000; % NG
	2	 0.0	 0.0	 3	   0.000000	   1.330527	   0.000000; % NG
	2	 0.0	 0.0	 3	   0.000000	   0.846210	   0.000000; % NG
	2	 0.0	 0.0	 3	   0.000000	   1.165865	   0.000000; % NG
	2	 0.0	 0.0	 3	   0.000000	   0.997776	   0.000000; % NG
	2	 0.0	 0.0	 3	   0.000000	   7.027963	   0.000000; % PEL
	2	 0.0	 0.0	 3	   0.000000	   0.759513	   0.000000; % NG
	2	 0.0	 0.0	 3	   0.000000	   6.736605	   0.000000; % PEL
	2	 0.0	 0.0	 3	   0.000000	   7.083104	   0.000000; % PEL
	2	 0.0	 0.0	 3	   0.000000	   1.230653	   0.000000; % NG
	2	 0.0	 0.0	 3	   0.000000	   6.820897	   0.000000; % PEL
	2	 0.0	 0.0	 3	   0.000000	   6.862841	   0.000000; % PEL
	2	 0.0	 0.0	 3	   0.000000	   6.557978	   0.000000; % PEL
	2	 0.0	 0.0	 3	   0.000000	   6.837183	   0.000000; % PEL
	2	 0.0	 0.0	 3	   0.000000	   7.261420	   0.000000; % PEL
	2	 0.0	 0.0	 3	   0.000000	   6.425192	   0.000000; % PEL
	2	 0.0	 0.0	 3	   0.000000	   1.041147	   0.000000; % NG
	2	 0.0	 0.0	 3	   0.000000	   1.013861	   0.000000; % NG
	2	 0.0	 0.0	 3	   0.000000	   1.458800	   0.000000; % NG
	2	 0.0	 0.0	 3	   0.000000	   6.830483	   0.000000; % PEL
	2	 0.0	 0.0	 3	   0.000000	   0.657855	   0.000000; % NG
	2	 0.0	 0.0	 3	   0.000000	   6.979813	   0.000000; % PEL
	2	 0.0	 0.0	 3	   0.000000	   0.967025	   0.000000; % COW
	2	 0.0	 0.0	 3	   0.000000	   6.427842	   0.000000; % PEL
	2	 0.0	 0.0	 3	   0.000000	   1.177689	   0.000000; % NG
	2	 0.0	 0.0	 3	   0.000000	   1.307550	   0.000000; % NG
	2	 0.0	 0.0	 3	   0.000000	   7.101893	   0.000000; % PEL
	2	 0.0	 0.0	 3	   0.000000	   1.401170	   0.000000; % NG
	2	 0.0	 0.0	 3	   0.000000	   1.146221	   0.000000; % NG
	2	 0.0	 0.0	 3	   0.000000	   6.875170	   0.000000; % PEL
	2	 0.0	 0.0	 3	   0.000000	   1.090812	   0.000000; % NG
	2	 0.0	 0.0	 3	   0.000000	   1.068978	   0.000000; % NG
	2	 0.0	 0.0	 3	   0.000000	   7.369434	   0.000000; % PEL
	2	 0.0	 0.0	 3	   0.000000	   1.095129	   0.000000; % NG
	2	 0.0	 0.0	 3	   0.000000	   0.961792	   0.000000; % NG
	2	 0.0	 0.0	 3	   0.000000	   0.742224	   0.000000; % NG
	2	 0.0	 0.0	 3	   0.000000	   0.000000	   0.000000; % SYNC
	2	 0.0	 0.0	 3	   0.000000	   0.650133	   0.000000; % NG
	2	 0.0	 0.0	 3	   0.000000	   7.121602	   0.000000; % PEL
	2	 0.0	 0.0	 3	   0.000000	   1.170900	   0.000000; % NG
	2	 0.0	 0.0	 3	   0.000000	   6.513903	   0.000000; % PEL
	2	 0.0	 0.0	 3	   0.000000	   0.888040	   0.000000; % NG
	2	 0.0	 0.0	 3	   0.000000	   1.322639	   0.000000; % NG
	2	 0.0	 0.0	 3	   0.000000	   0.583087	   0.000000; % COW
	2	 0.0	 0.0	 3	   0.000000	   0.916523	   0.000000; % NG
	2	 0.0	 0.0	 3	   0.000000	   6.305410	   0.000000; % PEL
	2	 0.0	 0.0	 3	   0.000000	   0.889495	   0.000000; % NG
	2	 0.0	 0.0	 3	   0.000000	   6.560910	   0.000000; % PEL
	2	 0.0	 0.0	 3	   0.000000	   6.783879	   0.000000; % PEL
	2	 0.0	 0.0	 3	   0.000000	   1.136869	   0.000000; % NG
	2	 0.0	 0.0	 3	   0.000000	   6.986718	   0.000000; % PEL
	2	 0.0	 0.0	 3	   0.000000	   0.793064	   0.000000; % COW
	2	 0.0	 0.0	 3	   0.000000	   6.989099	   0.000000; % PEL
	2	 0.0	 0.0	 3	   0.000000	   1.222365	   0.000000; % NG
	2	 0.0	 0.0	 3	   0.000000	   0.840446	   0.000000; % NG
	2	 0.0	 0.0	 3	   0.000000	   1.096082	   0.000000; % NG
	2	 0.0	 0.0	 3	   0.000000	   1.230573	   0.000000; % NG
	2	 0.0	 0.0	 3	   0.000000	   0.705741	   0.000000; % COW
	2	 0.0	 0.0	 3	   0.000000	   0.838370	   0.000000; % COW
	2	 0.0	 0.0	 3	   0.000000	   0.780780	   0.000000; % COW
	2	 0.0	 0.0	 3	   0.000000	   1.035446	   0.000000; % NG
	2	 0.0	 0.0	 3	   0.000000	   7.213092	   0.000000; % PEL
	2	 0.0	 0.0	 3	   0.000000	   7.076567	   0.000000; % PEL
	2	 0.0	 0.0	 3	   0.000000	   1.043925	   0.000000; % NG
	2	 0.0	 0.0	 3	   0.000000	   0.969388	   0.000000; % NG
	2	 0.0	 0.0	 3	   0.000000	   0.865104	   0.000000; % NG
	2	 0.0	 0.0	 3	   0.000000	   1.073614	   0.000000; % NG
	2	 0.0	 0.0	 3	   0.000000	   0.919729	   0.000000; % NG
	2	 0.0	 0.0	 3	   0.000000	   6.846895	   0.000000; % PEL
	2	 0.0	 0.0	 3	   0.000000	   6.948268	   0.000000; % PEL
	2	 0.0	 0.0	 3	   0.000000	   6.776167	   0.000000; % PEL
	2	 0.0	 0.0	 3	   0.000000	   1.052096	   0.000000; % NG
	2	 0.0	 0.0	 3	   0.000000	   1.110092	   0.000000; % COW
	2	 0.0	 0.0	 3	   0.000000	   0.682319	   0.000000; % NG
	2	 0.0	 0.0	 3	   0.000000	   7.389364	   0.000000; % PEL
	2	 0.0	 0.0	 3	   0.000000	   1.019276	   0.000000; % NG
	2	 0.0	 0.0	 3	   0.000000	   7.072115	   0.000000; % PEL
	2	 0.0	 0.0	 3	   0.000000	   6.219841	   0.000000; % PEL
	2	 0.0	 0.0	 3	   0.000000	   0.849792	   0.000000; % NG
	2	 0.0	 0.0	 3	   0.000000	   0.847257	   0.000000; % NG
	2	 0.0	 0.0	 3	   0.000000	   0.620090	   0.000000; % COW
	2	 0.0	 0.0	 3	   0.000000	   1.027678	   0.000000; % NG
	2	 0.0	 0.0	 3	   0.000000	   1.312760	   0.000000; % NG
	2	 0.0	 0.0	 3	   0.000000	   0.768339	   0.000000; % COW
	2	 0.0	 0.0	 3	   0.000000	   1.006863	   0.000000; % NG
	2	 0.0	 0.0	 3	   0.000000	   6.675057	   0.000000; % PEL
	2	 0.0	 0.0	 3	   0.000000	   0.993833	   0.000000; % NG
	2	 0.0	 0.0	 3	   0.000000	   1.244386	   0.000000; % NG
	2	 0.0	 0.0	 3	   0.000000	   6.805845	   0.000000; % PEL
	2	 0.0	 0.0	 3	   0.000000	   0.878070	   0.000000; % NG
	2	 0.0	 0.0	 3	   0.000000	   6.932842	   0.000000; % PEL
	2	 0.0	 0.0	 3	   0.000000	   0.907986	   0.000000; % NG
	2	 0.0	 0.0	 3	   0.000000	   0.970442	   0.000000; % NG
	2	 0.0	 0.0	 3	   0.000000	   6.603543	   0.000000; % PEL
	2	 0.0	 0.0	 3	   0.000000	   0.708026	   0.000000; % COW
	2	 0.0	 0.0	 3	   0.000000	   6.491889	   0.000000; % PEL
	2	 0.0	 0.0	 3	   0.000000	   1.304930	   0.000000; % NG
	2	 0.0	 0.0	 3	   0.000000	   0.403962	   0.000000; % COW
	2	 0.0	 0.0	 3	   0.000000	   0.738138	   0.000000; % COW
	2	 0.0	 0.0	 3	   0.000000	   1.378998	   0.000000; % COW
	2	 0.0	 0.0	 3	   0.000000	   0.673213	   0.000000; % NG
	2	 0.0	 0.0	 3	   0.000000	   1.653175	   0.000000; % NG
	2	 0.0	 0.0	 3	   0.000000	   0.971264	   0.000000; % NG
	2	 0.0	 0.0	 3	   0.000000	   0.838775	   0.000000; % NG
	2	 0.0	 0.0	 3	   0.000000	   1.375319	   0.000000; % NG
	2	 0.0	 0.0	 3	   0.000000	   6.938394	   0.000000; % PEL
	2	 0.0	 0.0	 3	   0.000000	   6.732291	   0.000000; % PEL
	2	 0.0	 0.0	 3	   0.000000	   1.323272	   0.000000; % NG
	2	 0.0	 0.0	 3	   0.000000	   1.051108	   0.000000; % NG
	2	 0.0	 0.0	 3	   0.000000	   0.872375	   0.000000; % NG
	2	 0.0	 0.0	 3	   0.000000	   1.253373	   0.000000; % NG
	2	 0.0	 0.0	 3	   0.000000	   0.929388	   0.000000; % NG
	2	 0.0	 0.0	 3	   0.000000	   6.696886	   0.000000; % PEL
	2	 0.0	 0.0	 3	   0.000000	   0.745609	   0.000000; % NG
	2	 0.0	 0.0	 3	   0.000000	   7.384024	   0.000000; % PEL
	2	 0.0	 0.0	 3	   0.000000	   7.300868	   0.000000; % PEL
	2	 0.0	 0.0	 3	   0.000000	   6.487123	   0.000000; % PEL
	2	 0.0	 0.0	 3	   0.000000	   1.334456	   0.000000; % NG
	2	 0.0	 0.0	 3	   0.000000	   0.842598	   0.000000; % NG
	2	 0.0	 0.0	 3	   0.000000	   1.001887	   0.000000; % COW
	2	 0.0	 0.0	 3	   0.000000	   0.919250	   0.000000; % NG
	2	 0.0	 0.0	 3	   0.000000	   6.805037	   0.000000; % PEL
...
];

%% branch data
%	fbus	tbus	r	x	b	rateA	rateB	rateC	ratio	angle	status	angmin	angmax
mpc.branch = [
	11	 42404	 0.0036	 0.00391	 0.00207	 100.0	 100.0	 110.0	 0.0	 0.0	 1	 -30.0	 30.0;
	12	 25404	 0.00534	 0.00795	 0.00407	 3604.0	 3604.0	 3604.0	 0.0	 0.0	 1	 -30.0	 30.0;
	12	 25404	 0.00594	 0.00866	 0.00435	 3287.0	 3287.0	 3287.0	 0.0	 0.0	 1	 -30.0	 30.0;
	12	 46504	 0.02132	 0.02114	 0.00329	 1149.0	 1149.0	 1149.0	 0.0	 0.0	 1	 -30.0	 30.0;
	12	 46504	 0.01937	 0.01703	 0.00256	 1338.0	 1338.0	 1338.0	 0.0	 0.0	 1	 -30.0	 30.0;
	1021	 2121	 0.0286	 0.067	 0.0059	 128.0	 128.0	 140.8	 0.0	 0.0	 1	 -30.0	 30.0;
	1021	 2361	 0.0513	 0.1172	 0.0106	 128.0	 128.0	 140.8	 0.0	 0.0	 1	 -30.0	 30.0;
	1021	 3541	 0.0071	 0.037	 0.0116	 125.0	 125.0	 137.5	 0.0	 0.0	 1	 -30.0	 30.0;
	1021	 10210	 0.0	 0.0001	 0.0	 999.0	 999.0	 1098.9	 0.0	 0.0	 1	 -30.0	 30.0;
	1021	 10261	 0.0	 0.0001	 0.0	 128.0	 128.0	 140.8	 0.0	 0.0	 1	 -30.0	 30.0;
	1041	 5481	 0.0049	 0.0107	 0.001	 128.0	 128.0	 140.8	 0.0	 0.0	 1	 -30.0	 30.0;
	1042	 1052	 0.0	 0.0001	 0.0	 9999.0	 9999.0	 10998.9	 0.0	 0.0	 0	 -30.0	 30.0;
	1042	 1062	 0.0	 0.0001	 0.0	 593.0	 593.0	 652.3	 0.0	 0.0	 1	 -30.0	 30.0;
	1042	 1072	 0.0001	 0.0006	 0.0384	 593.0	 593.0	 652.3	 0.0	 0.0	 1	 -30.0	 30.0;
	1042	 3202	 0.003	 0.0222	 0.0335	 534.0	 534.0	 587.4	 0.0	 0.0	 1	 -30.0	 30.0;
	1042	 4722	 0.0012	 0.0078	 0.2591	 534.0	 534.0	 587.4	 0.0	 0.0	 1	 -30.0	 30.0;
	1042	 35771	 0.0001	 0.0004	 0.0265	 593.0	 593.0	 652.3	 0.0	 0.0	 1	 -30.0	 30.0;
	1052	 1062	 0.0	 0.0001	 0.0	 999.0	 999.0	 1098.9	 0.0	 0.0	 0	 -30.0	 30.0;
	1052	 2852	 0.0002	 0.0015	 0.1035	 593.0	 593.0	 652.3	 0.0	 0.0	 1	 -30.0	 30.0;
	1052	 3202	 0.003	 0.0222	 0.0335	 534.0	 534.0	 587.4	 0.0	 0.0	 1	 -30.0	 30.0;
	1061	 10619	 0.0004	 0.0008	 0.0001	 128.0	 128.0	 140.8	 0.0	 0.0	 1	 -30.0	 30.0;
	1062	 1072	 0.0	 0.0001	 0.0	 999.0	 999.0	 1098.9	 0.0	 0.0	 0	 -30.0	 30.0;
	1071	 2231	 0.0125	 0.0276	 0.0026	 128.0	 128.0	 140.8	 0.0	 0.0	 1	 -30.0	 30.0;
	1071	 2361	 0.0594	 0.1314	 0.0123	 128.0	 128.0	 140.8	 0.0	 0.0	 1	 -30.0	 30.0;
	1071	 4941	 0.0718	 0.1589	 0.0148	 128.0	 128.0	 140.8	 0.0	 0.0	 1	 -30.0	 30.0;
	1081	 32810	 0.0039	 0.0123	 0.0035	 68.0	 112.0	 123.2	 0.0	 0.0	 1	 -30.0	 30.0;
	1101	 2161	 0.0031	 0.0069	 0.0006	 45.0	 128.0	 140.8	 0.0	 0.0	 1	 -30.0	 30.0;
	1121	 1301	 0.0102	 0.0787	 0.0071	 166.0	 166.0	 182.6	 0.0	 0.0	 1	 -30.0	 30.0;
	1121	 1541	 0.0207	 0.0952	 0.0102	 137.0	 219.0	 240.9	 0.0	 0.0	 1	 -30.0	 30.0;
	1121	 4901	 0.0035	 0.0077	 0.0008	 57.0	 57.0	 62.7	 0.0	 0.0	 1	 -30.0	 30.0;
	1122	 1742	 0.0062	 0.0462	 0.0697	 534.0	 534.0	 587.4	 0.0	 0.0	 1	 -30.0	 30.0;
	1122	 3642	 0.0046	 0.0338	 0.051	 435.0	 534.0	 587.4	 0.0	 0.0	 1	 -30.0	 30.0;
	1131	 1151	 0.0	 0.0001	 0.0	 219.0	 219.0	 240.9	 0.0	 0.0	 1	 -30.0	 30.0;
	1131	 2131	 0.005	 0.0105	 0.0703	 140.0	 140.0	 154.0	 0.0	 0.0	 1	 -30.0	 30.0;
	1131	 5261	 0.007	 0.0358	 0.0039	 219.0	 219.0	 240.9	 0.0	 0.0	 1	 -30.0	 30.0;
	1141	 1911	 0.0016	 0.0034	 0.0226	 140.0	 140.0	 154.0	 0.0	 0.0	 1	 -30.0	 30.0;
	1141	 3501	 0.054	 0.123	 0.0116	 128.0	 128.0	 140.8	 0.0	 0.0	 1	 -30.0	 30.0;
	1141	 4941	 0.0135	 0.0696	 0.0113	 137.0	 219.0	 240.9	 0.0	 0.0	 1	 -30.0	 30.0;
	1141	 11461	 0.0	 0.0001	 0.0	 128.0	 128.0	 140.8	 0.0	 0.0	 1	 -30.0	 30.0;
	1161	 1781	 0.001	 0.002	 0.0011	 96.0	 96.0	 105.6	 0.0	 0.0	 1	 -30.0	 30.0;
	1161	 3901	 0.0173	 0.0894	 0.0097	 219.0	 219.0	 240.9	 0.0	 0.0	 1	 -30.0	 30.0;
	1161	 5051	 0.0006	 0.0012	 0.0061	 131.0	 131.0	 144.1	 0.0	 0.0	 1	 -30.0	 30.0;
	1161	 5071	 0.0006	 0.0012	 0.0061	 131.0	 131.0	 144.1	 0.0	 0.0	 1	 -30.0	 30.0;
	1161	 17810	 0.001	 0.0021	 0.0012	 96.0	 96.0	 105.6	 0.0	 0.0	 1	 -30.0	 30.0;
	1161	 51410	 0.0214	 0.1105	 0.012	 219.0	 219.0	 240.9	 0.0	 0.0	 1	 -30.0	 30.0;
	1181	 1861	 0.0644	 0.1424	 0.0133	 128.0	 128.0	 140.8	 0.0	 0.0	 1	 -30.0	 30.0;
	1181	 2821	 0.0193	 0.0994	 0.0108	 219.0	 219.0	 240.9	 0.0	 0.0	 1	 -30.0	 30.0;
	1181	 4221	 0.0381	 0.1969	 0.0214	 128.0	 128.0	 140.8	 0.0	 0.0	 1	 -30.0	 30.0;
	1181	 4961	 0.0292	 0.0645	 0.006	 110.0	 110.0	 121.0	 0.0	 0.0	 1	 -30.0	 30.0;
	1181	 4961	 0.0148	 0.0763	 0.0097	 219.0	 219.0	 240.9	 0.0	 0.0	 1	 -30.0	 30.0;
	1201	 2561	 0.0047	 0.0101	 0.0548	 131.0	 131.0	 144.1	 0.0	 0.0	 1	 -30.0	 30.0;
	1201	 3781	 0.0026	 0.0055	 0.0298	 131.0	 131.0	 144.1	 0.0	 0.0	 1	 -30.0	 30.0;
	1221	 1901	 0.0389	 0.086	 0.008	 128.0	 128.0	 140.8	 0.0	 0.0	 1	 -30.0	 30.0;
	1221	 4481	 0.0414	 0.0915	 0.0086	 128.0	 128.0	 140.8	 0.0	 0.0	 1	 -30.0	 30.0;
	1231	 1841	 0.0111	 0.03	 0.1366	 68.0	 116.0	 127.6	 0.0	 0.0	 1	 -30.0	 30.0;
	1251	 2361	 0.0373	 0.0826	 0.0077	 128.0	 128.0	 140.8	 0.0	 0.0	 1	 -30.0	 30.0;
	1251	 52219	 0.0305	 0.0674	 0.0063	 128.0	 128.0	 140.8	 0.0	 0.0	 1	 -30.0	 30.0;
	1271	 2041	 0.0106	 0.0546	 0.006	 219.0	 219.0	 240.9	 0.0	 0.0	 1	 -30.0	 30.0;
	1271	 2181	 0.0126	 0.065	 0.0071	 219.0	 219.0	 240.9	 0.0	 0.0	 1	 -30.0	 30.0;
	1281	 2221	 0.0426	 0.0943	 0.0098	 68.0	 128.0	 140.8	 0.0	 0.0	 1	 -30.0	 30.0;
	1301	 17411	 0.0148	 0.1159	 0.0104	 166.0	 166.0	 182.6	 0.0	 0.0	 1	 -30.0	 30.0;
	1321	 13219	 0.0006	 0.0017	 0.0002	 166.0	 166.0	 182.6	 0.0	 0.0	 1	 -30.0	 30.0;
	1341	 1701	 0.0533	 0.1178	 0.011	 128.0	 128.0	 140.8	 0.0	 0.0	 1	 -30.0	 30.0;
	1341	 3581	 0.0719	 0.2302	 0.0235	 143.0	 143.0	 143.0	 0.0	 0.0	 1	 -30.0	 30.0;
	1351	 4081	 0.0121	 0.0367	 0.031	 124.0	 124.0	 136.4	 0.0	 0.0	 1	 -30.0	 30.0;
	1351	 4201	 0.0073	 0.0214	 0.0295	 124.0	 124.0	 136.4	 0.0	 0.0	 1	 -30.0	 30.0;
...